Program Version,EnergyPlus, Version 23.2.0-7636e6b3e9, YMD=2024.08.11 02:16,
   ** Warning ** Version: in IDF="23.1" not the same as expected="23.2"
   ** Warning ** Version: in IDF="23.1" not the same as expected="23.2"
   ************* Beginning Zone Sizing Calculations
   ** Warning ** Weather file location will be used rather than entered (IDF) Location object.
   **   ~~~   ** ..Location object=SITE 1
   **   ~~~   ** ..Weather File Location=AMSTERDAM - NLD IWEC Data WMO#=062400
   **   ~~~   ** ..due to location differences, Latitude difference=[52.30] degrees, Longitude difference=[4.77] degrees.
   **   ~~~   ** ..Time Zone difference=[1.0] hour(s), Elevation difference=[200.00] percent, [2.00] meters.
   ** Warning ** ProcessScheduleInput: Schedule:Constant="ALWAYS ON DISCRETE", Blank Schedule Type Limits Name input -- will not be validated.
   ** Warning ** ProcessScheduleInput: Schedule:Constant="ALWAYS OFF DISCRETE", Blank Schedule Type Limits Name input -- will not be validated.
   ** Warning ** ProcessScheduleInput: Schedule:Constant="ALWAYS ON CONTINUOUS", Blank Schedule Type Limits Name input -- will not be validated.
   ** Warning ** CheckUsedConstructions: There are 13 nominally unused constructions in input.
   **   ~~~   ** For explicit details on each unused construction, use Output:Diagnostics,DisplayExtraWarnings;
   ** Warning ** Temperature out of range [-100. to 200.] (PsyPsatFnTemp)
   **   ~~~   **  Routine=CalcPurchAirLoads, During Sizing, Environment=AMSTERDAM HEATING DESIGN DAY 99.6% CONDNS DB, at Simulation time=02/21 24:00 - 24:15
   **   ~~~   **  Input Temperature=-333.89
   ** Warning ** ManageSizing: For a plant sizing run, there must be at least 1 Sizing:Plant object input. SimulationControl Plant Sizing option ignored.
   ** Warning ** For zone=ROOM_62B6A475-1BD9-45F0-8EB8-86BC21807113-0005A439 return air heat gain from lights will be applied to the zone air.
   **   ~~~   **   This zone has no return air or is served by an on/off HVAC system.
   ************* Testing Individual Branch Integrity
   ************* All Branches passed integrity testing
   ************* Testing Individual Supply Air Path Integrity
   ************* All Supply Air Paths passed integrity testing
   ************* Testing Individual Return Air Path Integrity
   ************* All Return Air Paths passed integrity testing
   ************* No node connection errors were found.
   ************* Beginning Simulation
   ** Warning ** Data Exchange API: You seem to already have tried to get an Actuator Handle on this one.
   **   ~~~   ** Occurred for componentType='ZONE TEMPERATURE CONTROL', controlType='HEATING SETPOINT', uniqueKey='ROOM_62B6A475-1BD9-45F0-8EB8-86BC21807113-0005A439'.
   **   ~~~   ** The getActuatorHandle function will still return the handle (= 266) but caller should take note that there is a risk of overwritting.
   ** Warning ** Data Exchange API: You seem to already have tried to get an Actuator Handle on this one.
   **   ~~~   ** Occurred for componentType='ZONE TEMPERATURE CONTROL', controlType='COOLING SETPOINT', uniqueKey='ROOM_62B6A475-1BD9-45F0-8EB8-86BC21807113-0005A439'.
   **   ~~~   ** The getActuatorHandle function will still return the handle (= 267) but caller should take note that there is a risk of overwritting.
   ** Warning ** Data Exchange API: You seem to already have tried to get an Actuator Handle on this one.
   **   ~~~   ** Occurred for componentType='ZONE TEMPERATURE CONTROL', controlType='HEATING SETPOINT', uniqueKey='ROOM_62B6A475-1BD9-45F0-8EB8-86BC21807113-0005A439'.
   **   ~~~   ** The getActuatorHandle function will still return the handle (= 266) but caller should take note that there is a risk of overwritting.
   ** Warning ** Data Exchange API: You seem to already have tried to get an Actuator Handle on this one.
   **   ~~~   ** Occurred for componentType='ZONE TEMPERATURE CONTROL', controlType='COOLING SETPOINT', uniqueKey='ROOM_62B6A475-1BD9-45F0-8EB8-86BC21807113-0005A439'.
   **   ~~~   ** The getActuatorHandle function will still return the handle (= 267) but caller should take note that there is a risk of overwritting.
   ** Warning ** Data Exchange API: You seem to already have tried to get an Actuator Handle on this one.
   **   ~~~   ** Occurred for componentType='ZONE TEMPERATURE CONTROL', controlType='HEATING SETPOINT', uniqueKey='ROOM_62B6A475-1BD9-45F0-8EB8-86BC21807113-0005A439'.
   **   ~~~   ** The getActuatorHandle function will still return the handle (= 266) but caller should take note that there is a risk of overwritting.
   ** Warning ** Data Exchange API: You seem to already have tried to get an Actuator Handle on this one.
   **   ~~~   ** Occurred for componentType='ZONE TEMPERATURE CONTROL', controlType='COOLING SETPOINT', uniqueKey='ROOM_62B6A475-1BD9-45F0-8EB8-86BC21807113-0005A439'.
   **   ~~~   ** The getActuatorHandle function will still return the handle (= 267) but caller should take note that there is a risk of overwritting.
   ** Warning ** Data Exchange API: You seem to already have tried to get an Actuator Handle on this one.
   **   ~~~   ** Occurred for componentType='ZONE TEMPERATURE CONTROL', controlType='HEATING SETPOINT', uniqueKey='ROOM_62B6A475-1BD9-45F0-8EB8-86BC21807113-0005A439'.
   **   ~~~   ** The getActuatorHandle function will still return the handle (= 266) but caller should take note that there is a risk of overwritting.
   ** Warning ** Data Exchange API: You seem to already have tried to get an Actuator Handle on this one.
   **   ~~~   ** Occurred for componentType='ZONE TEMPERATURE CONTROL', controlType='COOLING SETPOINT', uniqueKey='ROOM_62B6A475-1BD9-45F0-8EB8-86BC21807113-0005A439'.
   **   ~~~   ** The getActuatorHandle function will still return the handle (= 267) but caller should take note that there is a risk of overwritting.
   ** Warning ** Data Exchange API: You seem to already have tried to get an Actuator Handle on this one.
   **   ~~~   ** Occurred for componentType='ZONE TEMPERATURE CONTROL', controlType='HEATING SETPOINT', uniqueKey='ROOM_62B6A475-1BD9-45F0-8EB8-86BC21807113-0005A439'.
   **   ~~~   ** The getActuatorHandle function will still return the handle (= 266) but caller should take note that there is a risk of overwritting.
   ** Warning ** Data Exchange API: You seem to already have tried to get an Actuator Handle on this one.
   **   ~~~   ** Occurred for componentType='ZONE TEMPERATURE CONTROL', controlType='COOLING SETPOINT', uniqueKey='ROOM_62B6A475-1BD9-45F0-8EB8-86BC21807113-0005A439'.
   **   ~~~   ** The getActuatorHandle function will still return the handle (= 267) but caller should take note that there is a risk of overwritting.
   ** Warning ** Data Exchange API: You seem to already have tried to get an Actuator Handle on this one.
   **   ~~~   ** Occurred for componentType='ZONE TEMPERATURE CONTROL', controlType='HEATING SETPOINT', uniqueKey='ROOM_62B6A475-1BD9-45F0-8EB8-86BC21807113-0005A439'.
   **   ~~~   ** The getActuatorHandle function will still return the handle (= 266) but caller should take note that there is a risk of overwritting.
   ** Warning ** Data Exchange API: You seem to already have tried to get an Actuator Handle on this one.
   **   ~~~   ** Occurred for componentType='ZONE TEMPERATURE CONTROL', controlType='COOLING SETPOINT', uniqueKey='ROOM_62B6A475-1BD9-45F0-8EB8-86BC21807113-0005A439'.
   **   ~~~   ** The getActuatorHandle function will still return the handle (= 267) but caller should take note that there is a risk of overwritting.
   ** Warning ** Data Exchange API: You seem to already have tried to get an Actuator Handle on this one.
   **   ~~~   ** Occurred for componentType='ZONE TEMPERATURE CONTROL', controlType='HEATING SETPOINT', uniqueKey='ROOM_62B6A475-1BD9-45F0-8EB8-86BC21807113-0005A439'.
   **   ~~~   ** The getActuatorHandle function will still return the handle (= 266) but caller should take note that there is a risk of overwritting.
   ** Warning ** Data Exchange API: You seem to already have tried to get an Actuator Handle on this one.
   **   ~~~   ** Occurred for componentType='ZONE TEMPERATURE CONTROL', controlType='COOLING SETPOINT', uniqueKey='ROOM_62B6A475-1BD9-45F0-8EB8-86BC21807113-0005A439'.
   **   ~~~   ** The getActuatorHandle function will still return the handle (= 267) but caller should take note that there is a risk of overwritting.
   ** Warning ** Data Exchange API: You seem to already have tried to get an Actuator Handle on this one.
   **   ~~~   ** Occurred for componentType='ZONE TEMPERATURE CONTROL', controlType='HEATING SETPOINT', uniqueKey='ROOM_62B6A475-1BD9-45F0-8EB8-86BC21807113-0005A439'.
   **   ~~~   ** The getActuatorHandle function will still return the handle (= 266) but caller should take note that there is a risk of overwritting.
   ** Warning ** Data Exchange API: You seem to already have tried to get an Actuator Handle on this one.
   **   ~~~   ** Occurred for componentType='ZONE TEMPERATURE CONTROL', controlType='COOLING SETPOINT', uniqueKey='ROOM_62B6A475-1BD9-45F0-8EB8-86BC21807113-0005A439'.
   **   ~~~   ** The getActuatorHandle function will still return the handle (= 267) but caller should take note that there is a risk of overwritting.
   ** Warning ** Data Exchange API: You seem to already have tried to get an Actuator Handle on this one.
   **   ~~~   ** Occurred for componentType='ZONE TEMPERATURE CONTROL', controlType='HEATING SETPOINT', uniqueKey='ROOM_62B6A475-1BD9-45F0-8EB8-86BC21807113-0005A439'.
   **   ~~~   ** The getActuatorHandle function will still return the handle (= 266) but caller should take note that there is a risk of overwritting.
   ** Warning ** Data Exchange API: You seem to already have tried to get an Actuator Handle on this one.
   **   ~~~   ** Occurred for componentType='ZONE TEMPERATURE CONTROL', controlType='COOLING SETPOINT', uniqueKey='ROOM_62B6A475-1BD9-45F0-8EB8-86BC21807113-0005A439'.
   **   ~~~   ** The getActuatorHandle function will still return the handle (= 267) but caller should take note that there is a risk of overwritting.
   ** Warning ** Data Exchange API: You seem to already have tried to get an Actuator Handle on this one.
   **   ~~~   ** Occurred for componentType='ZONE TEMPERATURE CONTROL', controlType='HEATING SETPOINT', uniqueKey='ROOM_62B6A475-1BD9-45F0-8EB8-86BC21807113-0005A439'.
   **   ~~~   ** The getActuatorHandle function will still return the handle (= 266) but caller should take note that there is a risk of overwritting.
   ** Warning ** Data Exchange API: You seem to already have tried to get an Actuator Handle on this one.
   **   ~~~   ** Occurred for componentType='ZONE TEMPERATURE CONTROL', controlType='COOLING SETPOINT', uniqueKey='ROOM_62B6A475-1BD9-45F0-8EB8-86BC21807113-0005A439'.
   **   ~~~   ** The getActuatorHandle function will still return the handle (= 267) but caller should take note that there is a risk of overwritting.
   ** Warning ** Data Exchange API: You seem to already have tried to get an Actuator Handle on this one.
   **   ~~~   ** Occurred for componentType='ZONE TEMPERATURE CONTROL', controlType='HEATING SETPOINT', uniqueKey='ROOM_62B6A475-1BD9-45F0-8EB8-86BC21807113-0005A439'.
   **   ~~~   ** The getActuatorHandle function will still return the handle (= 266) but caller should take note that there is a risk of overwritting.
   ** Warning ** Data Exchange API: You seem to already have tried to get an Actuator Handle on this one.
   **   ~~~   ** Occurred for componentType='ZONE TEMPERATURE CONTROL', controlType='COOLING SETPOINT', uniqueKey='ROOM_62B6A475-1BD9-45F0-8EB8-86BC21807113-0005A439'.
   **   ~~~   ** The getActuatorHandle function will still return the handle (= 267) but caller should take note that there is a risk of overwritting.
   ** Warning ** Data Exchange API: You seem to already have tried to get an Actuator Handle on this one.
   **   ~~~   ** Occurred for componentType='ZONE TEMPERATURE CONTROL', controlType='HEATING SETPOINT', uniqueKey='ROOM_62B6A475-1BD9-45F0-8EB8-86BC21807113-0005A439'.
   **   ~~~   ** The getActuatorHandle function will still return the handle (= 266) but caller should take note that there is a risk of overwritting.
   ** Warning ** Data Exchange API: You seem to already have tried to get an Actuator Handle on this one.
   **   ~~~   ** Occurred for componentType='ZONE TEMPERATURE CONTROL', controlType='COOLING SETPOINT', uniqueKey='ROOM_62B6A475-1BD9-45F0-8EB8-86BC21807113-0005A439'.
   **   ~~~   ** The getActuatorHandle function will still return the handle (= 267) but caller should take note that there is a risk of overwritting.
   ** Warning ** Data Exchange API: You seem to already have tried to get an Actuator Handle on this one.
   **   ~~~   ** Occurred for componentType='ZONE TEMPERATURE CONTROL', controlType='HEATING SETPOINT', uniqueKey='ROOM_62B6A475-1BD9-45F0-8EB8-86BC21807113-0005A439'.
   **   ~~~   ** The getActuatorHandle function will still return the handle (= 266) but caller should take note that there is a risk of overwritting.
   ** Warning ** Data Exchange API: You seem to already have tried to get an Actuator Handle on this one.
   **   ~~~   ** Occurred for componentType='ZONE TEMPERATURE CONTROL', controlType='COOLING SETPOINT', uniqueKey='ROOM_62B6A475-1BD9-45F0-8EB8-86BC21807113-0005A439'.
   **   ~~~   ** The getActuatorHandle function will still return the handle (= 267) but caller should take note that there is a risk of overwritting.
   ** Warning ** Data Exchange API: You seem to already have tried to get an Actuator Handle on this one.
   **   ~~~   ** Occurred for componentType='ZONE TEMPERATURE CONTROL', controlType='HEATING SETPOINT', uniqueKey='ROOM_62B6A475-1BD9-45F0-8EB8-86BC21807113-0005A439'.
   **   ~~~   ** The getActuatorHandle function will still return the handle (= 266) but caller should take note that there is a risk of overwritting.
   ** Warning ** Data Exchange API: You seem to already have tried to get an Actuator Handle on this one.
   **   ~~~   ** Occurred for componentType='ZONE TEMPERATURE CONTROL', controlType='COOLING SETPOINT', uniqueKey='ROOM_62B6A475-1BD9-45F0-8EB8-86BC21807113-0005A439'.
   **   ~~~   ** The getActuatorHandle function will still return the handle (= 267) but caller should take note that there is a risk of overwritting.
   ** Warning ** Data Exchange API: You seem to already have tried to get an Actuator Handle on this one.
   **   ~~~   ** Occurred for componentType='ZONE TEMPERATURE CONTROL', controlType='HEATING SETPOINT', uniqueKey='ROOM_62B6A475-1BD9-45F0-8EB8-86BC21807113-0005A439'.
   **   ~~~   ** The getActuatorHandle function will still return the handle (= 266) but caller should take note that there is a risk of overwritting.
   ** Warning ** Data Exchange API: You seem to already have tried to get an Actuator Handle on this one.
   **   ~~~   ** Occurred for componentType='ZONE TEMPERATURE CONTROL', controlType='COOLING SETPOINT', uniqueKey='ROOM_62B6A475-1BD9-45F0-8EB8-86BC21807113-0005A439'.
   **   ~~~   ** The getActuatorHandle function will still return the handle (= 267) but caller should take note that there is a risk of overwritting.
   ** Warning ** Data Exchange API: You seem to already have tried to get an Actuator Handle on this one.
   **   ~~~   ** Occurred for componentType='ZONE TEMPERATURE CONTROL', controlType='HEATING SETPOINT', uniqueKey='ROOM_62B6A475-1BD9-45F0-8EB8-86BC21807113-0005A439'.
   **   ~~~   ** The getActuatorHandle function will still return the handle (= 266) but caller should take note that there is a risk of overwritting.
   ** Warning ** Data Exchange API: You seem to already have tried to get an Actuator Handle on this one.
   **   ~~~   ** Occurred for componentType='ZONE TEMPERATURE CONTROL', controlType='COOLING SETPOINT', uniqueKey='ROOM_62B6A475-1BD9-45F0-8EB8-86BC21807113-0005A439'.
   **   ~~~   ** The getActuatorHandle function will still return the handle (= 267) but caller should take note that there is a risk of overwritting.
   ** Warning ** Data Exchange API: You seem to already have tried to get an Actuator Handle on this one.
   **   ~~~   ** Occurred for componentType='ZONE TEMPERATURE CONTROL', controlType='HEATING SETPOINT', uniqueKey='ROOM_62B6A475-1BD9-45F0-8EB8-86BC21807113-0005A439'.
   **   ~~~   ** The getActuatorHandle function will still return the handle (= 266) but caller should take note that there is a risk of overwritting.
   ** Warning ** Data Exchange API: You seem to already have tried to get an Actuator Handle on this one.
   **   ~~~   ** Occurred for componentType='ZONE TEMPERATURE CONTROL', controlType='COOLING SETPOINT', uniqueKey='ROOM_62B6A475-1BD9-45F0-8EB8-86BC21807113-0005A439'.
   **   ~~~   ** The getActuatorHandle function will still return the handle (= 267) but caller should take note that there is a risk of overwritting.
   ** Warning ** Data Exchange API: You seem to already have tried to get an Actuator Handle on this one.
   **   ~~~   ** Occurred for componentType='ZONE TEMPERATURE CONTROL', controlType='HEATING SETPOINT', uniqueKey='ROOM_62B6A475-1BD9-45F0-8EB8-86BC21807113-0005A439'.
   **   ~~~   ** The getActuatorHandle function will still return the handle (= 266) but caller should take note that there is a risk of overwritting.
   ** Warning ** Data Exchange API: You seem to already have tried to get an Actuator Handle on this one.
   **   ~~~   ** Occurred for componentType='ZONE TEMPERATURE CONTROL', controlType='COOLING SETPOINT', uniqueKey='ROOM_62B6A475-1BD9-45F0-8EB8-86BC21807113-0005A439'.
   **   ~~~   ** The getActuatorHandle function will still return the handle (= 267) but caller should take note that there is a risk of overwritting.
   ** Warning ** Data Exchange API: You seem to already have tried to get an Actuator Handle on this one.
   **   ~~~   ** Occurred for componentType='ZONE TEMPERATURE CONTROL', controlType='HEATING SETPOINT', uniqueKey='ROOM_62B6A475-1BD9-45F0-8EB8-86BC21807113-0005A439'.
   **   ~~~   ** The getActuatorHandle function will still return the handle (= 266) but caller should take note that there is a risk of overwritting.
   ** Warning ** Data Exchange API: You seem to already have tried to get an Actuator Handle on this one.
   **   ~~~   ** Occurred for componentType='ZONE TEMPERATURE CONTROL', controlType='COOLING SETPOINT', uniqueKey='ROOM_62B6A475-1BD9-45F0-8EB8-86BC21807113-0005A439'.
   **   ~~~   ** The getActuatorHandle function will still return the handle (= 267) but caller should take note that there is a risk of overwritting.
   ** Warning ** Data Exchange API: You seem to already have tried to get an Actuator Handle on this one.
   **   ~~~   ** Occurred for componentType='ZONE TEMPERATURE CONTROL', controlType='HEATING SETPOINT', uniqueKey='ROOM_62B6A475-1BD9-45F0-8EB8-86BC21807113-0005A439'.
   **   ~~~   ** The getActuatorHandle function will still return the handle (= 266) but caller should take note that there is a risk of overwritting.
   ** Warning ** Data Exchange API: You seem to already have tried to get an Actuator Handle on this one.
   **   ~~~   ** Occurred for componentType='ZONE TEMPERATURE CONTROL', controlType='COOLING SETPOINT', uniqueKey='ROOM_62B6A475-1BD9-45F0-8EB8-86BC21807113-0005A439'.
   **   ~~~   ** The getActuatorHandle function will still return the handle (= 267) but caller should take note that there is a risk of overwritting.
   ** Warning ** Data Exchange API: You seem to already have tried to get an Actuator Handle on this one.
   **   ~~~   ** Occurred for componentType='ZONE TEMPERATURE CONTROL', controlType='HEATING SETPOINT', uniqueKey='ROOM_62B6A475-1BD9-45F0-8EB8-86BC21807113-0005A439'.
   **   ~~~   ** The getActuatorHandle function will still return the handle (= 266) but caller should take note that there is a risk of overwritting.
   ** Warning ** Data Exchange API: You seem to already have tried to get an Actuator Handle on this one.
   **   ~~~   ** Occurred for componentType='ZONE TEMPERATURE CONTROL', controlType='COOLING SETPOINT', uniqueKey='ROOM_62B6A475-1BD9-45F0-8EB8-86BC21807113-0005A439'.
   **   ~~~   ** The getActuatorHandle function will still return the handle (= 267) but caller should take note that there is a risk of overwritting.
   ** Warning ** Data Exchange API: You seem to already have tried to get an Actuator Handle on this one.
   **   ~~~   ** Occurred for componentType='ZONE TEMPERATURE CONTROL', controlType='HEATING SETPOINT', uniqueKey='ROOM_62B6A475-1BD9-45F0-8EB8-86BC21807113-0005A439'.
   **   ~~~   ** The getActuatorHandle function will still return the handle (= 266) but caller should take note that there is a risk of overwritting.
   ** Warning ** Data Exchange API: You seem to already have tried to get an Actuator Handle on this one.
   **   ~~~   ** Occurred for componentType='ZONE TEMPERATURE CONTROL', controlType='COOLING SETPOINT', uniqueKey='ROOM_62B6A475-1BD9-45F0-8EB8-86BC21807113-0005A439'.
   **   ~~~   ** The getActuatorHandle function will still return the handle (= 267) but caller should take note that there is a risk of overwritting.
   ** Warning ** Data Exchange API: You seem to already have tried to get an Actuator Handle on this one.
   **   ~~~   ** Occurred for componentType='ZONE TEMPERATURE CONTROL', controlType='HEATING SETPOINT', uniqueKey='ROOM_62B6A475-1BD9-45F0-8EB8-86BC21807113-0005A439'.
   **   ~~~   ** The getActuatorHandle function will still return the handle (= 266) but caller should take note that there is a risk of overwritting.
   ** Warning ** Data Exchange API: You seem to already have tried to get an Actuator Handle on this one.
   **   ~~~   ** Occurred for componentType='ZONE TEMPERATURE CONTROL', controlType='COOLING SETPOINT', uniqueKey='ROOM_62B6A475-1BD9-45F0-8EB8-86BC21807113-0005A439'.
   **   ~~~   ** The getActuatorHandle function will still return the handle (= 267) but caller should take note that there is a risk of overwritting.
   ** Warning ** Data Exchange API: You seem to already have tried to get an Actuator Handle on this one.
   **   ~~~   ** Occurred for componentType='ZONE TEMPERATURE CONTROL', controlType='HEATING SETPOINT', uniqueKey='ROOM_62B6A475-1BD9-45F0-8EB8-86BC21807113-0005A439'.
   **   ~~~   ** The getActuatorHandle function will still return the handle (= 266) but caller should take note that there is a risk of overwritting.
   ** Warning ** Data Exchange API: You seem to already have tried to get an Actuator Handle on this one.
   **   ~~~   ** Occurred for componentType='ZONE TEMPERATURE CONTROL', controlType='COOLING SETPOINT', uniqueKey='ROOM_62B6A475-1BD9-45F0-8EB8-86BC21807113-0005A439'.
   **   ~~~   ** The getActuatorHandle function will still return the handle (= 267) but caller should take note that there is a risk of overwritting.
   ** Warning ** Data Exchange API: You seem to already have tried to get an Actuator Handle on this one.
   **   ~~~   ** Occurred for componentType='ZONE TEMPERATURE CONTROL', controlType='HEATING SETPOINT', uniqueKey='ROOM_62B6A475-1BD9-45F0-8EB8-86BC21807113-0005A439'.
   **   ~~~   ** The getActuatorHandle function will still return the handle (= 266) but caller should take note that there is a risk of overwritting.
   ** Warning ** Data Exchange API: You seem to already have tried to get an Actuator Handle on this one.
   **   ~~~   ** Occurred for componentType='ZONE TEMPERATURE CONTROL', controlType='COOLING SETPOINT', uniqueKey='ROOM_62B6A475-1BD9-45F0-8EB8-86BC21807113-0005A439'.
   **   ~~~   ** The getActuatorHandle function will still return the handle (= 267) but caller should take note that there is a risk of overwritting.
   ** Warning ** Data Exchange API: You seem to already have tried to get an Actuator Handle on this one.
   **   ~~~   ** Occurred for componentType='ZONE TEMPERATURE CONTROL', controlType='HEATING SETPOINT', uniqueKey='ROOM_62B6A475-1BD9-45F0-8EB8-86BC21807113-0005A439'.
   **   ~~~   ** The getActuatorHandle function will still return the handle (= 266) but caller should take note that there is a risk of overwritting.
   ** Warning ** Data Exchange API: You seem to already have tried to get an Actuator Handle on this one.
   **   ~~~   ** Occurred for componentType='ZONE TEMPERATURE CONTROL', controlType='COOLING SETPOINT', uniqueKey='ROOM_62B6A475-1BD9-45F0-8EB8-86BC21807113-0005A439'.
   **   ~~~   ** The getActuatorHandle function will still return the handle (= 267) but caller should take note that there is a risk of overwritting.
   ** Warning ** Data Exchange API: You seem to already have tried to get an Actuator Handle on this one.
   **   ~~~   ** Occurred for componentType='ZONE TEMPERATURE CONTROL', controlType='HEATING SETPOINT', uniqueKey='ROOM_62B6A475-1BD9-45F0-8EB8-86BC21807113-0005A439'.
   **   ~~~   ** The getActuatorHandle function will still return the handle (= 266) but caller should take note that there is a risk of overwritting.
   ** Warning ** Data Exchange API: You seem to already have tried to get an Actuator Handle on this one.
   **   ~~~   ** Occurred for componentType='ZONE TEMPERATURE CONTROL', controlType='COOLING SETPOINT', uniqueKey='ROOM_62B6A475-1BD9-45F0-8EB8-86BC21807113-0005A439'.
   **   ~~~   ** The getActuatorHandle function will still return the handle (= 267) but caller should take note that there is a risk of overwritting.
   ** Warning ** Data Exchange API: You seem to already have tried to get an Actuator Handle on this one.
   **   ~~~   ** Occurred for componentType='ZONE TEMPERATURE CONTROL', controlType='HEATING SETPOINT', uniqueKey='ROOM_62B6A475-1BD9-45F0-8EB8-86BC21807113-0005A439'.
   **   ~~~   ** The getActuatorHandle function will still return the handle (= 266) but caller should take note that there is a risk of overwritting.
   ** Warning ** Data Exchange API: You seem to already have tried to get an Actuator Handle on this one.
   **   ~~~   ** Occurred for componentType='ZONE TEMPERATURE CONTROL', controlType='COOLING SETPOINT', uniqueKey='ROOM_62B6A475-1BD9-45F0-8EB8-86BC21807113-0005A439'.
   **   ~~~   ** The getActuatorHandle function will still return the handle (= 267) but caller should take note that there is a risk of overwritting.
   ** Warning ** Data Exchange API: You seem to already have tried to get an Actuator Handle on this one.
   **   ~~~   ** Occurred for componentType='ZONE TEMPERATURE CONTROL', controlType='HEATING SETPOINT', uniqueKey='ROOM_62B6A475-1BD9-45F0-8EB8-86BC21807113-0005A439'.
   **   ~~~   ** The getActuatorHandle function will still return the handle (= 266) but caller should take note that there is a risk of overwritting.
   ** Warning ** Data Exchange API: You seem to already have tried to get an Actuator Handle on this one.
   **   ~~~   ** Occurred for componentType='ZONE TEMPERATURE CONTROL', controlType='COOLING SETPOINT', uniqueKey='ROOM_62B6A475-1BD9-45F0-8EB8-86BC21807113-0005A439'.
   **   ~~~   ** The getActuatorHandle function will still return the handle (= 267) but caller should take note that there is a risk of overwritting.
   ** Warning ** Data Exchange API: You seem to already have tried to get an Actuator Handle on this one.
   **   ~~~   ** Occurred for componentType='ZONE TEMPERATURE CONTROL', controlType='HEATING SETPOINT', uniqueKey='ROOM_62B6A475-1BD9-45F0-8EB8-86BC21807113-0005A439'.
   **   ~~~   ** The getActuatorHandle function will still return the handle (= 266) but caller should take note that there is a risk of overwritting.
   ** Warning ** Data Exchange API: You seem to already have tried to get an Actuator Handle on this one.
   **   ~~~   ** Occurred for componentType='ZONE TEMPERATURE CONTROL', controlType='COOLING SETPOINT', uniqueKey='ROOM_62B6A475-1BD9-45F0-8EB8-86BC21807113-0005A439'.
   **   ~~~   ** The getActuatorHandle function will still return the handle (= 267) but caller should take note that there is a risk of overwritting.
   ** Warning ** Data Exchange API: You seem to already have tried to get an Actuator Handle on this one.
   **   ~~~   ** Occurred for componentType='ZONE TEMPERATURE CONTROL', controlType='HEATING SETPOINT', uniqueKey='ROOM_62B6A475-1BD9-45F0-8EB8-86BC21807113-0005A439'.
   **   ~~~   ** The getActuatorHandle function will still return the handle (= 266) but caller should take note that there is a risk of overwritting.
   ** Warning ** Data Exchange API: You seem to already have tried to get an Actuator Handle on this one.
   **   ~~~   ** Occurred for componentType='ZONE TEMPERATURE CONTROL', controlType='COOLING SETPOINT', uniqueKey='ROOM_62B6A475-1BD9-45F0-8EB8-86BC21807113-0005A439'.
   **   ~~~   ** The getActuatorHandle function will still return the handle (= 267) but caller should take note that there is a risk of overwritting.
   ** Warning ** Data Exchange API: You seem to already have tried to get an Actuator Handle on this one.
   **   ~~~   ** Occurred for componentType='ZONE TEMPERATURE CONTROL', controlType='HEATING SETPOINT', uniqueKey='ROOM_62B6A475-1BD9-45F0-8EB8-86BC21807113-0005A439'.
   **   ~~~   ** The getActuatorHandle function will still return the handle (= 266) but caller should take note that there is a risk of overwritting.
   ** Warning ** Data Exchange API: You seem to already have tried to get an Actuator Handle on this one.
   **   ~~~   ** Occurred for componentType='ZONE TEMPERATURE CONTROL', controlType='COOLING SETPOINT', uniqueKey='ROOM_62B6A475-1BD9-45F0-8EB8-86BC21807113-0005A439'.
   **   ~~~   ** The getActuatorHandle function will still return the handle (= 267) but caller should take note that there is a risk of overwritting.
   ** Warning ** Data Exchange API: You seem to already have tried to get an Actuator Handle on this one.
   **   ~~~   ** Occurred for componentType='ZONE TEMPERATURE CONTROL', controlType='HEATING SETPOINT', uniqueKey='ROOM_62B6A475-1BD9-45F0-8EB8-86BC21807113-0005A439'.
   **   ~~~   ** The getActuatorHandle function will still return the handle (= 266) but caller should take note that there is a risk of overwritting.
   ** Warning ** Data Exchange API: You seem to already have tried to get an Actuator Handle on this one.
   **   ~~~   ** Occurred for componentType='ZONE TEMPERATURE CONTROL', controlType='COOLING SETPOINT', uniqueKey='ROOM_62B6A475-1BD9-45F0-8EB8-86BC21807113-0005A439'.
   **   ~~~   ** The getActuatorHandle function will still return the handle (= 267) but caller should take note that there is a risk of overwritting.
   ** Warning ** Data Exchange API: You seem to already have tried to get an Actuator Handle on this one.
   **   ~~~   ** Occurred for componentType='ZONE TEMPERATURE CONTROL', controlType='HEATING SETPOINT', uniqueKey='ROOM_62B6A475-1BD9-45F0-8EB8-86BC21807113-0005A439'.
   **   ~~~   ** The getActuatorHandle function will still return the handle (= 266) but caller should take note that there is a risk of overwritting.
   ** Warning ** Data Exchange API: You seem to already have tried to get an Actuator Handle on this one.
   **   ~~~   ** Occurred for componentType='ZONE TEMPERATURE CONTROL', controlType='COOLING SETPOINT', uniqueKey='ROOM_62B6A475-1BD9-45F0-8EB8-86BC21807113-0005A439'.
   **   ~~~   ** The getActuatorHandle function will still return the handle (= 267) but caller should take note that there is a risk of overwritting.
   ** Warning ** Data Exchange API: You seem to already have tried to get an Actuator Handle on this one.
   **   ~~~   ** Occurred for componentType='ZONE TEMPERATURE CONTROL', controlType='HEATING SETPOINT', uniqueKey='ROOM_62B6A475-1BD9-45F0-8EB8-86BC21807113-0005A439'.
   **   ~~~   ** The getActuatorHandle function will still return the handle (= 266) but caller should take note that there is a risk of overwritting.
   ** Warning ** Data Exchange API: You seem to already have tried to get an Actuator Handle on this one.
   **   ~~~   ** Occurred for componentType='ZONE TEMPERATURE CONTROL', controlType='COOLING SETPOINT', uniqueKey='ROOM_62B6A475-1BD9-45F0-8EB8-86BC21807113-0005A439'.
   **   ~~~   ** The getActuatorHandle function will still return the handle (= 267) but caller should take note that there is a risk of overwritting.
   ** Warning ** Data Exchange API: You seem to already have tried to get an Actuator Handle on this one.
   **   ~~~   ** Occurred for componentType='ZONE TEMPERATURE CONTROL', controlType='HEATING SETPOINT', uniqueKey='ROOM_62B6A475-1BD9-45F0-8EB8-86BC21807113-0005A439'.
   **   ~~~   ** The getActuatorHandle function will still return the handle (= 266) but caller should take note that there is a risk of overwritting.
   ** Warning ** Data Exchange API: You seem to already have tried to get an Actuator Handle on this one.
   **   ~~~   ** Occurred for componentType='ZONE TEMPERATURE CONTROL', controlType='COOLING SETPOINT', uniqueKey='ROOM_62B6A475-1BD9-45F0-8EB8-86BC21807113-0005A439'.
   **   ~~~   ** The getActuatorHandle function will still return the handle (= 267) but caller should take note that there is a risk of overwritting.
   ** Warning ** Data Exchange API: You seem to already have tried to get an Actuator Handle on this one.
   **   ~~~   ** Occurred for componentType='ZONE TEMPERATURE CONTROL', controlType='HEATING SETPOINT', uniqueKey='ROOM_62B6A475-1BD9-45F0-8EB8-86BC21807113-0005A439'.
   **   ~~~   ** The getActuatorHandle function will still return the handle (= 266) but caller should take note that there is a risk of overwritting.
   ** Warning ** Data Exchange API: You seem to already have tried to get an Actuator Handle on this one.
   **   ~~~   ** Occurred for componentType='ZONE TEMPERATURE CONTROL', controlType='COOLING SETPOINT', uniqueKey='ROOM_62B6A475-1BD9-45F0-8EB8-86BC21807113-0005A439'.
   **   ~~~   ** The getActuatorHandle function will still return the handle (= 267) but caller should take note that there is a risk of overwritting.
   ** Warning ** Data Exchange API: You seem to already have tried to get an Actuator Handle on this one.
   **   ~~~   ** Occurred for componentType='ZONE TEMPERATURE CONTROL', controlType='HEATING SETPOINT', uniqueKey='ROOM_62B6A475-1BD9-45F0-8EB8-86BC21807113-0005A439'.
   **   ~~~   ** The getActuatorHandle function will still return the handle (= 266) but caller should take note that there is a risk of overwritting.
   ** Warning ** Data Exchange API: You seem to already have tried to get an Actuator Handle on this one.
   **   ~~~   ** Occurred for componentType='ZONE TEMPERATURE CONTROL', controlType='COOLING SETPOINT', uniqueKey='ROOM_62B6A475-1BD9-45F0-8EB8-86BC21807113-0005A439'.
   **   ~~~   ** The getActuatorHandle function will still return the handle (= 267) but caller should take note that there is a risk of overwritting.
   ** Warning ** Data Exchange API: You seem to already have tried to get an Actuator Handle on this one.
   **   ~~~   ** Occurred for componentType='ZONE TEMPERATURE CONTROL', controlType='HEATING SETPOINT', uniqueKey='ROOM_62B6A475-1BD9-45F0-8EB8-86BC21807113-0005A439'.
   **   ~~~   ** The getActuatorHandle function will still return the handle (= 266) but caller should take note that there is a risk of overwritting.
   ** Warning ** Data Exchange API: You seem to already have tried to get an Actuator Handle on this one.
   **   ~~~   ** Occurred for componentType='ZONE TEMPERATURE CONTROL', controlType='COOLING SETPOINT', uniqueKey='ROOM_62B6A475-1BD9-45F0-8EB8-86BC21807113-0005A439'.
   **   ~~~   ** The getActuatorHandle function will still return the handle (= 267) but caller should take note that there is a risk of overwritting.
   ** Warning ** Data Exchange API: You seem to already have tried to get an Actuator Handle on this one.
   **   ~~~   ** Occurred for componentType='ZONE TEMPERATURE CONTROL', controlType='HEATING SETPOINT', uniqueKey='ROOM_62B6A475-1BD9-45F0-8EB8-86BC21807113-0005A439'.
   **   ~~~   ** The getActuatorHandle function will still return the handle (= 266) but caller should take note that there is a risk of overwritting.
   ** Warning ** Data Exchange API: You seem to already have tried to get an Actuator Handle on this one.
   **   ~~~   ** Occurred for componentType='ZONE TEMPERATURE CONTROL', controlType='COOLING SETPOINT', uniqueKey='ROOM_62B6A475-1BD9-45F0-8EB8-86BC21807113-0005A439'.
   **   ~~~   ** The getActuatorHandle function will still return the handle (= 267) but caller should take note that there is a risk of overwritting.
   ** Warning ** Data Exchange API: You seem to already have tried to get an Actuator Handle on this one.
   **   ~~~   ** Occurred for componentType='ZONE TEMPERATURE CONTROL', controlType='HEATING SETPOINT', uniqueKey='ROOM_62B6A475-1BD9-45F0-8EB8-86BC21807113-0005A439'.
   **   ~~~   ** The getActuatorHandle function will still return the handle (= 266) but caller should take note that there is a risk of overwritting.
   ** Warning ** Data Exchange API: You seem to already have tried to get an Actuator Handle on this one.
   **   ~~~   ** Occurred for componentType='ZONE TEMPERATURE CONTROL', controlType='COOLING SETPOINT', uniqueKey='ROOM_62B6A475-1BD9-45F0-8EB8-86BC21807113-0005A439'.
   **   ~~~   ** The getActuatorHandle function will still return the handle (= 267) but caller should take note that there is a risk of overwritting.
   ** Warning ** Data Exchange API: You seem to already have tried to get an Actuator Handle on this one.
   **   ~~~   ** Occurred for componentType='ZONE TEMPERATURE CONTROL', controlType='HEATING SETPOINT', uniqueKey='ROOM_62B6A475-1BD9-45F0-8EB8-86BC21807113-0005A439'.
   **   ~~~   ** The getActuatorHandle function will still return the handle (= 266) but caller should take note that there is a risk of overwritting.
   ** Warning ** Data Exchange API: You seem to already have tried to get an Actuator Handle on this one.
   **   ~~~   ** Occurred for componentType='ZONE TEMPERATURE CONTROL', controlType='COOLING SETPOINT', uniqueKey='ROOM_62B6A475-1BD9-45F0-8EB8-86BC21807113-0005A439'.
   **   ~~~   ** The getActuatorHandle function will still return the handle (= 267) but caller should take note that there is a risk of overwritting.
   ** Warning ** Data Exchange API: You seem to already have tried to get an Actuator Handle on this one.
   **   ~~~   ** Occurred for componentType='ZONE TEMPERATURE CONTROL', controlType='HEATING SETPOINT', uniqueKey='ROOM_62B6A475-1BD9-45F0-8EB8-86BC21807113-0005A439'.
   **   ~~~   ** The getActuatorHandle function will still return the handle (= 266) but caller should take note that there is a risk of overwritting.
   ** Warning ** Data Exchange API: You seem to already have tried to get an Actuator Handle on this one.
   **   ~~~   ** Occurred for componentType='ZONE TEMPERATURE CONTROL', controlType='COOLING SETPOINT', uniqueKey='ROOM_62B6A475-1BD9-45F0-8EB8-86BC21807113-0005A439'.
   **   ~~~   ** The getActuatorHandle function will still return the handle (= 267) but caller should take note that there is a risk of overwritting.
   ** Warning ** Data Exchange API: You seem to already have tried to get an Actuator Handle on this one.
   **   ~~~   ** Occurred for componentType='ZONE TEMPERATURE CONTROL', controlType='HEATING SETPOINT', uniqueKey='ROOM_62B6A475-1BD9-45F0-8EB8-86BC21807113-0005A439'.
   **   ~~~   ** The getActuatorHandle function will still return the handle (= 266) but caller should take note that there is a risk of overwritting.
   ** Warning ** Data Exchange API: You seem to already have tried to get an Actuator Handle on this one.
   **   ~~~   ** Occurred for componentType='ZONE TEMPERATURE CONTROL', controlType='COOLING SETPOINT', uniqueKey='ROOM_62B6A475-1BD9-45F0-8EB8-86BC21807113-0005A439'.
   **   ~~~   ** The getActuatorHandle function will still return the handle (= 267) but caller should take note that there is a risk of overwritting.
   ** Warning ** Data Exchange API: You seem to already have tried to get an Actuator Handle on this one.
   **   ~~~   ** Occurred for componentType='ZONE TEMPERATURE CONTROL', controlType='HEATING SETPOINT', uniqueKey='ROOM_62B6A475-1BD9-45F0-8EB8-86BC21807113-0005A439'.
   **   ~~~   ** The getActuatorHandle function will still return the handle (= 266) but caller should take note that there is a risk of overwritting.
   ** Warning ** Data Exchange API: You seem to already have tried to get an Actuator Handle on this one.
   **   ~~~   ** Occurred for componentType='ZONE TEMPERATURE CONTROL', controlType='COOLING SETPOINT', uniqueKey='ROOM_62B6A475-1BD9-45F0-8EB8-86BC21807113-0005A439'.
   **   ~~~   ** The getActuatorHandle function will still return the handle (= 267) but caller should take note that there is a risk of overwritting.
   ** Warning ** Data Exchange API: You seem to already have tried to get an Actuator Handle on this one.
   **   ~~~   ** Occurred for componentType='ZONE TEMPERATURE CONTROL', controlType='HEATING SETPOINT', uniqueKey='ROOM_62B6A475-1BD9-45F0-8EB8-86BC21807113-0005A439'.
   **   ~~~   ** The getActuatorHandle function will still return the handle (= 266) but caller should take note that there is a risk of overwritting.
   ** Warning ** Data Exchange API: You seem to already have tried to get an Actuator Handle on this one.
   **   ~~~   ** Occurred for componentType='ZONE TEMPERATURE CONTROL', controlType='COOLING SETPOINT', uniqueKey='ROOM_62B6A475-1BD9-45F0-8EB8-86BC21807113-0005A439'.
   **   ~~~   ** The getActuatorHandle function will still return the handle (= 267) but caller should take note that there is a risk of overwritting.
   ** Warning ** Data Exchange API: You seem to already have tried to get an Actuator Handle on this one.
   **   ~~~   ** Occurred for componentType='ZONE TEMPERATURE CONTROL', controlType='HEATING SETPOINT', uniqueKey='ROOM_62B6A475-1BD9-45F0-8EB8-86BC21807113-0005A439'.
   **   ~~~   ** The getActuatorHandle function will still return the handle (= 266) but caller should take note that there is a risk of overwritting.
   ** Warning ** Data Exchange API: You seem to already have tried to get an Actuator Handle on this one.
   **   ~~~   ** Occurred for componentType='ZONE TEMPERATURE CONTROL', controlType='COOLING SETPOINT', uniqueKey='ROOM_62B6A475-1BD9-45F0-8EB8-86BC21807113-0005A439'.
   **   ~~~   ** The getActuatorHandle function will still return the handle (= 267) but caller should take note that there is a risk of overwritting.
   ** Warning ** Data Exchange API: You seem to already have tried to get an Actuator Handle on this one.
   **   ~~~   ** Occurred for componentType='ZONE TEMPERATURE CONTROL', controlType='HEATING SETPOINT', uniqueKey='ROOM_62B6A475-1BD9-45F0-8EB8-86BC21807113-0005A439'.
   **   ~~~   ** The getActuatorHandle function will still return the handle (= 266) but caller should take note that there is a risk of overwritting.
   ** Warning ** Data Exchange API: You seem to already have tried to get an Actuator Handle on this one.
   **   ~~~   ** Occurred for componentType='ZONE TEMPERATURE CONTROL', controlType='COOLING SETPOINT', uniqueKey='ROOM_62B6A475-1BD9-45F0-8EB8-86BC21807113-0005A439'.
   **   ~~~   ** The getActuatorHandle function will still return the handle (= 267) but caller should take note that there is a risk of overwritting.
   ** Warning ** Data Exchange API: You seem to already have tried to get an Actuator Handle on this one.
   **   ~~~   ** Occurred for componentType='ZONE TEMPERATURE CONTROL', controlType='HEATING SETPOINT', uniqueKey='ROOM_62B6A475-1BD9-45F0-8EB8-86BC21807113-0005A439'.
   **   ~~~   ** The getActuatorHandle function will still return the handle (= 266) but caller should take note that there is a risk of overwritting.
   ** Warning ** Data Exchange API: You seem to already have tried to get an Actuator Handle on this one.
   **   ~~~   ** Occurred for componentType='ZONE TEMPERATURE CONTROL', controlType='COOLING SETPOINT', uniqueKey='ROOM_62B6A475-1BD9-45F0-8EB8-86BC21807113-0005A439'.
   **   ~~~   ** The getActuatorHandle function will still return the handle (= 267) but caller should take note that there is a risk of overwritting.
   ** Warning ** Data Exchange API: You seem to already have tried to get an Actuator Handle on this one.
   **   ~~~   ** Occurred for componentType='ZONE TEMPERATURE CONTROL', controlType='HEATING SETPOINT', uniqueKey='ROOM_62B6A475-1BD9-45F0-8EB8-86BC21807113-0005A439'.
   **   ~~~   ** The getActuatorHandle function will still return the handle (= 266) but caller should take note that there is a risk of overwritting.
   ** Warning ** Data Exchange API: You seem to already have tried to get an Actuator Handle on this one.
   **   ~~~   ** Occurred for componentType='ZONE TEMPERATURE CONTROL', controlType='COOLING SETPOINT', uniqueKey='ROOM_62B6A475-1BD9-45F0-8EB8-86BC21807113-0005A439'.
   **   ~~~   ** The getActuatorHandle function will still return the handle (= 267) but caller should take note that there is a risk of overwritting.
   ** Warning ** Data Exchange API: You seem to already have tried to get an Actuator Handle on this one.
   **   ~~~   ** Occurred for componentType='ZONE TEMPERATURE CONTROL', controlType='HEATING SETPOINT', uniqueKey='ROOM_62B6A475-1BD9-45F0-8EB8-86BC21807113-0005A439'.
   **   ~~~   ** The getActuatorHandle function will still return the handle (= 266) but caller should take note that there is a risk of overwritting.
   ** Warning ** Data Exchange API: You seem to already have tried to get an Actuator Handle on this one.
   **   ~~~   ** Occurred for componentType='ZONE TEMPERATURE CONTROL', controlType='COOLING SETPOINT', uniqueKey='ROOM_62B6A475-1BD9-45F0-8EB8-86BC21807113-0005A439'.
   **   ~~~   ** The getActuatorHandle function will still return the handle (= 267) but caller should take note that there is a risk of overwritting.
   ** Warning ** Data Exchange API: You seem to already have tried to get an Actuator Handle on this one.
   **   ~~~   ** Occurred for componentType='ZONE TEMPERATURE CONTROL', controlType='HEATING SETPOINT', uniqueKey='ROOM_62B6A475-1BD9-45F0-8EB8-86BC21807113-0005A439'.
   **   ~~~   ** The getActuatorHandle function will still return the handle (= 266) but caller should take note that there is a risk of overwritting.
   ** Warning ** Data Exchange API: You seem to already have tried to get an Actuator Handle on this one.
   **   ~~~   ** Occurred for componentType='ZONE TEMPERATURE CONTROL', controlType='COOLING SETPOINT', uniqueKey='ROOM_62B6A475-1BD9-45F0-8EB8-86BC21807113-0005A439'.
   **   ~~~   ** The getActuatorHandle function will still return the handle (= 267) but caller should take note that there is a risk of overwritting.
   ** Warning ** Data Exchange API: You seem to already have tried to get an Actuator Handle on this one.
   **   ~~~   ** Occurred for componentType='ZONE TEMPERATURE CONTROL', controlType='HEATING SETPOINT', uniqueKey='ROOM_62B6A475-1BD9-45F0-8EB8-86BC21807113-0005A439'.
   **   ~~~   ** The getActuatorHandle function will still return the handle (= 266) but caller should take note that there is a risk of overwritting.
   ** Warning ** Data Exchange API: You seem to already have tried to get an Actuator Handle on this one.
   **   ~~~   ** Occurred for componentType='ZONE TEMPERATURE CONTROL', controlType='COOLING SETPOINT', uniqueKey='ROOM_62B6A475-1BD9-45F0-8EB8-86BC21807113-0005A439'.
   **   ~~~   ** The getActuatorHandle function will still return the handle (= 267) but caller should take note that there is a risk of overwritting.
   ** Warning ** Data Exchange API: You seem to already have tried to get an Actuator Handle on this one.
   **   ~~~   ** Occurred for componentType='ZONE TEMPERATURE CONTROL', controlType='HEATING SETPOINT', uniqueKey='ROOM_62B6A475-1BD9-45F0-8EB8-86BC21807113-0005A439'.
   **   ~~~   ** The getActuatorHandle function will still return the handle (= 266) but caller should take note that there is a risk of overwritting.
   ** Warning ** Data Exchange API: You seem to already have tried to get an Actuator Handle on this one.
   **   ~~~   ** Occurred for componentType='ZONE TEMPERATURE CONTROL', controlType='COOLING SETPOINT', uniqueKey='ROOM_62B6A475-1BD9-45F0-8EB8-86BC21807113-0005A439'.
   **   ~~~   ** The getActuatorHandle function will still return the handle (= 267) but caller should take note that there is a risk of overwritting.
   ** Warning ** Data Exchange API: You seem to already have tried to get an Actuator Handle on this one.
   **   ~~~   ** Occurred for componentType='ZONE TEMPERATURE CONTROL', controlType='HEATING SETPOINT', uniqueKey='ROOM_62B6A475-1BD9-45F0-8EB8-86BC21807113-0005A439'.
   **   ~~~   ** The getActuatorHandle function will still return the handle (= 266) but caller should take note that there is a risk of overwritting.
   ** Warning ** Data Exchange API: You seem to already have tried to get an Actuator Handle on this one.
   **   ~~~   ** Occurred for componentType='ZONE TEMPERATURE CONTROL', controlType='COOLING SETPOINT', uniqueKey='ROOM_62B6A475-1BD9-45F0-8EB8-86BC21807113-0005A439'.
   **   ~~~   ** The getActuatorHandle function will still return the handle (= 267) but caller should take note that there is a risk of overwritting.
   ** Warning ** Data Exchange API: You seem to already have tried to get an Actuator Handle on this one.
   **   ~~~   ** Occurred for componentType='ZONE TEMPERATURE CONTROL', controlType='HEATING SETPOINT', uniqueKey='ROOM_62B6A475-1BD9-45F0-8EB8-86BC21807113-0005A439'.
   **   ~~~   ** The getActuatorHandle function will still return the handle (= 266) but caller should take note that there is a risk of overwritting.
   ** Warning ** Data Exchange API: You seem to already have tried to get an Actuator Handle on this one.
   **   ~~~   ** Occurred for componentType='ZONE TEMPERATURE CONTROL', controlType='COOLING SETPOINT', uniqueKey='ROOM_62B6A475-1BD9-45F0-8EB8-86BC21807113-0005A439'.
   **   ~~~   ** The getActuatorHandle function will still return the handle (= 267) but caller should take note that there is a risk of overwritting.
   ** Warning ** Data Exchange API: You seem to already have tried to get an Actuator Handle on this one.
   **   ~~~   ** Occurred for componentType='ZONE TEMPERATURE CONTROL', controlType='HEATING SETPOINT', uniqueKey='ROOM_62B6A475-1BD9-45F0-8EB8-86BC21807113-0005A439'.
   **   ~~~   ** The getActuatorHandle function will still return the handle (= 266) but caller should take note that there is a risk of overwritting.
   ** Warning ** Data Exchange API: You seem to already have tried to get an Actuator Handle on this one.
   **   ~~~   ** Occurred for componentType='ZONE TEMPERATURE CONTROL', controlType='COOLING SETPOINT', uniqueKey='ROOM_62B6A475-1BD9-45F0-8EB8-86BC21807113-0005A439'.
   **   ~~~   ** The getActuatorHandle function will still return the handle (= 267) but caller should take note that there is a risk of overwritting.
   ** Warning ** Data Exchange API: You seem to already have tried to get an Actuator Handle on this one.
   **   ~~~   ** Occurred for componentType='ZONE TEMPERATURE CONTROL', controlType='HEATING SETPOINT', uniqueKey='ROOM_62B6A475-1BD9-45F0-8EB8-86BC21807113-0005A439'.
   **   ~~~   ** The getActuatorHandle function will still return the handle (= 266) but caller should take note that there is a risk of overwritting.
   ** Warning ** Data Exchange API: You seem to already have tried to get an Actuator Handle on this one.
   **   ~~~   ** Occurred for componentType='ZONE TEMPERATURE CONTROL', controlType='COOLING SETPOINT', uniqueKey='ROOM_62B6A475-1BD9-45F0-8EB8-86BC21807113-0005A439'.
   **   ~~~   ** The getActuatorHandle function will still return the handle (= 267) but caller should take note that there is a risk of overwritting.
   ** Warning ** Data Exchange API: You seem to already have tried to get an Actuator Handle on this one.
   **   ~~~   ** Occurred for componentType='ZONE TEMPERATURE CONTROL', controlType='HEATING SETPOINT', uniqueKey='ROOM_62B6A475-1BD9-45F0-8EB8-86BC21807113-0005A439'.
   **   ~~~   ** The getActuatorHandle function will still return the handle (= 266) but caller should take note that there is a risk of overwritting.
   ** Warning ** Data Exchange API: You seem to already have tried to get an Actuator Handle on this one.
   **   ~~~   ** Occurred for componentType='ZONE TEMPERATURE CONTROL', controlType='COOLING SETPOINT', uniqueKey='ROOM_62B6A475-1BD9-45F0-8EB8-86BC21807113-0005A439'.
   **   ~~~   ** The getActuatorHandle function will still return the handle (= 267) but caller should take note that there is a risk of overwritting.
   ** Warning ** Data Exchange API: You seem to already have tried to get an Actuator Handle on this one.
   **   ~~~   ** Occurred for componentType='ZONE TEMPERATURE CONTROL', controlType='HEATING SETPOINT', uniqueKey='ROOM_62B6A475-1BD9-45F0-8EB8-86BC21807113-0005A439'.
   **   ~~~   ** The getActuatorHandle function will still return the handle (= 266) but caller should take note that there is a risk of overwritting.
   ** Warning ** Data Exchange API: You seem to already have tried to get an Actuator Handle on this one.
   **   ~~~   ** Occurred for componentType='ZONE TEMPERATURE CONTROL', controlType='COOLING SETPOINT', uniqueKey='ROOM_62B6A475-1BD9-45F0-8EB8-86BC21807113-0005A439'.
   **   ~~~   ** The getActuatorHandle function will still return the handle (= 267) but caller should take note that there is a risk of overwritting.
   ** Warning ** Data Exchange API: You seem to already have tried to get an Actuator Handle on this one.
   **   ~~~   ** Occurred for componentType='ZONE TEMPERATURE CONTROL', controlType='HEATING SETPOINT', uniqueKey='ROOM_62B6A475-1BD9-45F0-8EB8-86BC21807113-0005A439'.
   **   ~~~   ** The getActuatorHandle function will still return the handle (= 266) but caller should take note that there is a risk of overwritting.
   ** Warning ** Data Exchange API: You seem to already have tried to get an Actuator Handle on this one.
   **   ~~~   ** Occurred for componentType='ZONE TEMPERATURE CONTROL', controlType='COOLING SETPOINT', uniqueKey='ROOM_62B6A475-1BD9-45F0-8EB8-86BC21807113-0005A439'.
   **   ~~~   ** The getActuatorHandle function will still return the handle (= 267) but caller should take note that there is a risk of overwritting.
   ** Warning ** Data Exchange API: You seem to already have tried to get an Actuator Handle on this one.
   **   ~~~   ** Occurred for componentType='ZONE TEMPERATURE CONTROL', controlType='HEATING SETPOINT', uniqueKey='ROOM_62B6A475-1BD9-45F0-8EB8-86BC21807113-0005A439'.
   **   ~~~   ** The getActuatorHandle function will still return the handle (= 266) but caller should take note that there is a risk of overwritting.
   ** Warning ** Data Exchange API: You seem to already have tried to get an Actuator Handle on this one.
   **   ~~~   ** Occurred for componentType='ZONE TEMPERATURE CONTROL', controlType='COOLING SETPOINT', uniqueKey='ROOM_62B6A475-1BD9-45F0-8EB8-86BC21807113-0005A439'.
   **   ~~~   ** The getActuatorHandle function will still return the handle (= 267) but caller should take note that there is a risk of overwritting.
   ** Warning ** Data Exchange API: You seem to already have tried to get an Actuator Handle on this one.
   **   ~~~   ** Occurred for componentType='ZONE TEMPERATURE CONTROL', controlType='HEATING SETPOINT', uniqueKey='ROOM_62B6A475-1BD9-45F0-8EB8-86BC21807113-0005A439'.
   **   ~~~   ** The getActuatorHandle function will still return the handle (= 266) but caller should take note that there is a risk of overwritting.
   ** Warning ** Data Exchange API: You seem to already have tried to get an Actuator Handle on this one.
   **   ~~~   ** Occurred for componentType='ZONE TEMPERATURE CONTROL', controlType='COOLING SETPOINT', uniqueKey='ROOM_62B6A475-1BD9-45F0-8EB8-86BC21807113-0005A439'.
   **   ~~~   ** The getActuatorHandle function will still return the handle (= 267) but caller should take note that there is a risk of overwritting.
   ** Warning ** Data Exchange API: You seem to already have tried to get an Actuator Handle on this one.
   **   ~~~   ** Occurred for componentType='ZONE TEMPERATURE CONTROL', controlType='HEATING SETPOINT', uniqueKey='ROOM_62B6A475-1BD9-45F0-8EB8-86BC21807113-0005A439'.
   **   ~~~   ** The getActuatorHandle function will still return the handle (= 266) but caller should take note that there is a risk of overwritting.
   ** Warning ** Data Exchange API: You seem to already have tried to get an Actuator Handle on this one.
   **   ~~~   ** Occurred for componentType='ZONE TEMPERATURE CONTROL', controlType='COOLING SETPOINT', uniqueKey='ROOM_62B6A475-1BD9-45F0-8EB8-86BC21807113-0005A439'.
   **   ~~~   ** The getActuatorHandle function will still return the handle (= 267) but caller should take note that there is a risk of overwritting.
   ** Warning ** Data Exchange API: You seem to already have tried to get an Actuator Handle on this one.
   **   ~~~   ** Occurred for componentType='ZONE TEMPERATURE CONTROL', controlType='HEATING SETPOINT', uniqueKey='ROOM_62B6A475-1BD9-45F0-8EB8-86BC21807113-0005A439'.
   **   ~~~   ** The getActuatorHandle function will still return the handle (= 266) but caller should take note that there is a risk of overwritting.
   ** Warning ** Data Exchange API: You seem to already have tried to get an Actuator Handle on this one.
   **   ~~~   ** Occurred for componentType='ZONE TEMPERATURE CONTROL', controlType='COOLING SETPOINT', uniqueKey='ROOM_62B6A475-1BD9-45F0-8EB8-86BC21807113-0005A439'.
   **   ~~~   ** The getActuatorHandle function will still return the handle (= 267) but caller should take note that there is a risk of overwritting.
   ** Warning ** Data Exchange API: You seem to already have tried to get an Actuator Handle on this one.
   **   ~~~   ** Occurred for componentType='ZONE TEMPERATURE CONTROL', controlType='HEATING SETPOINT', uniqueKey='ROOM_62B6A475-1BD9-45F0-8EB8-86BC21807113-0005A439'.
   **   ~~~   ** The getActuatorHandle function will still return the handle (= 266) but caller should take note that there is a risk of overwritting.
   ** Warning ** Data Exchange API: You seem to already have tried to get an Actuator Handle on this one.
   **   ~~~   ** Occurred for componentType='ZONE TEMPERATURE CONTROL', controlType='COOLING SETPOINT', uniqueKey='ROOM_62B6A475-1BD9-45F0-8EB8-86BC21807113-0005A439'.
   **   ~~~   ** The getActuatorHandle function will still return the handle (= 267) but caller should take note that there is a risk of overwritting.
   ** Warning ** Data Exchange API: You seem to already have tried to get an Actuator Handle on this one.
   **   ~~~   ** Occurred for componentType='ZONE TEMPERATURE CONTROL', controlType='HEATING SETPOINT', uniqueKey='ROOM_62B6A475-1BD9-45F0-8EB8-86BC21807113-0005A439'.
   **   ~~~   ** The getActuatorHandle function will still return the handle (= 266) but caller should take note that there is a risk of overwritting.
   ** Warning ** Data Exchange API: You seem to already have tried to get an Actuator Handle on this one.
   **   ~~~   ** Occurred for componentType='ZONE TEMPERATURE CONTROL', controlType='COOLING SETPOINT', uniqueKey='ROOM_62B6A475-1BD9-45F0-8EB8-86BC21807113-0005A439'.
   **   ~~~   ** The getActuatorHandle function will still return the handle (= 267) but caller should take note that there is a risk of overwritting.
   ** Warning ** Data Exchange API: You seem to already have tried to get an Actuator Handle on this one.
   **   ~~~   ** Occurred for componentType='ZONE TEMPERATURE CONTROL', controlType='HEATING SETPOINT', uniqueKey='ROOM_62B6A475-1BD9-45F0-8EB8-86BC21807113-0005A439'.
   **   ~~~   ** The getActuatorHandle function will still return the handle (= 266) but caller should take note that there is a risk of overwritting.
   ** Warning ** Data Exchange API: You seem to already have tried to get an Actuator Handle on this one.
   **   ~~~   ** Occurred for componentType='ZONE TEMPERATURE CONTROL', controlType='COOLING SETPOINT', uniqueKey='ROOM_62B6A475-1BD9-45F0-8EB8-86BC21807113-0005A439'.
   **   ~~~   ** The getActuatorHandle function will still return the handle (= 267) but caller should take note that there is a risk of overwritting.
   ** Warning ** Data Exchange API: You seem to already have tried to get an Actuator Handle on this one.
   **   ~~~   ** Occurred for componentType='ZONE TEMPERATURE CONTROL', controlType='HEATING SETPOINT', uniqueKey='ROOM_62B6A475-1BD9-45F0-8EB8-86BC21807113-0005A439'.
   **   ~~~   ** The getActuatorHandle function will still return the handle (= 266) but caller should take note that there is a risk of overwritting.
   ** Warning ** Data Exchange API: You seem to already have tried to get an Actuator Handle on this one.
   **   ~~~   ** Occurred for componentType='ZONE TEMPERATURE CONTROL', controlType='COOLING SETPOINT', uniqueKey='ROOM_62B6A475-1BD9-45F0-8EB8-86BC21807113-0005A439'.
   **   ~~~   ** The getActuatorHandle function will still return the handle (= 267) but caller should take note that there is a risk of overwritting.
   ** Warning ** Data Exchange API: You seem to already have tried to get an Actuator Handle on this one.
   **   ~~~   ** Occurred for componentType='ZONE TEMPERATURE CONTROL', controlType='HEATING SETPOINT', uniqueKey='ROOM_62B6A475-1BD9-45F0-8EB8-86BC21807113-0005A439'.
   **   ~~~   ** The getActuatorHandle function will still return the handle (= 266) but caller should take note that there is a risk of overwritting.
   ** Warning ** Data Exchange API: You seem to already have tried to get an Actuator Handle on this one.
   **   ~~~   ** Occurred for componentType='ZONE TEMPERATURE CONTROL', controlType='COOLING SETPOINT', uniqueKey='ROOM_62B6A475-1BD9-45F0-8EB8-86BC21807113-0005A439'.
   **   ~~~   ** The getActuatorHandle function will still return the handle (= 267) but caller should take note that there is a risk of overwritting.
   ** Warning ** Data Exchange API: You seem to already have tried to get an Actuator Handle on this one.
   **   ~~~   ** Occurred for componentType='ZONE TEMPERATURE CONTROL', controlType='HEATING SETPOINT', uniqueKey='ROOM_62B6A475-1BD9-45F0-8EB8-86BC21807113-0005A439'.
   **   ~~~   ** The getActuatorHandle function will still return the handle (= 266) but caller should take note that there is a risk of overwritting.
   ** Warning ** Data Exchange API: You seem to already have tried to get an Actuator Handle on this one.
   **   ~~~   ** Occurred for componentType='ZONE TEMPERATURE CONTROL', controlType='COOLING SETPOINT', uniqueKey='ROOM_62B6A475-1BD9-45F0-8EB8-86BC21807113-0005A439'.
   **   ~~~   ** The getActuatorHandle function will still return the handle (= 267) but caller should take note that there is a risk of overwritting.
   ** Warning ** Data Exchange API: You seem to already have tried to get an Actuator Handle on this one.
   **   ~~~   ** Occurred for componentType='ZONE TEMPERATURE CONTROL', controlType='HEATING SETPOINT', uniqueKey='ROOM_62B6A475-1BD9-45F0-8EB8-86BC21807113-0005A439'.
   **   ~~~   ** The getActuatorHandle function will still return the handle (= 266) but caller should take note that there is a risk of overwritting.
   ** Warning ** Data Exchange API: You seem to already have tried to get an Actuator Handle on this one.
   **   ~~~   ** Occurred for componentType='ZONE TEMPERATURE CONTROL', controlType='COOLING SETPOINT', uniqueKey='ROOM_62B6A475-1BD9-45F0-8EB8-86BC21807113-0005A439'.
   **   ~~~   ** The getActuatorHandle function will still return the handle (= 267) but caller should take note that there is a risk of overwritting.
   ** Warning ** Data Exchange API: You seem to already have tried to get an Actuator Handle on this one.
   **   ~~~   ** Occurred for componentType='ZONE TEMPERATURE CONTROL', controlType='HEATING SETPOINT', uniqueKey='ROOM_62B6A475-1BD9-45F0-8EB8-86BC21807113-0005A439'.
   **   ~~~   ** The getActuatorHandle function will still return the handle (= 266) but caller should take note that there is a risk of overwritting.
   ** Warning ** Data Exchange API: You seem to already have tried to get an Actuator Handle on this one.
   **   ~~~   ** Occurred for componentType='ZONE TEMPERATURE CONTROL', controlType='COOLING SETPOINT', uniqueKey='ROOM_62B6A475-1BD9-45F0-8EB8-86BC21807113-0005A439'.
   **   ~~~   ** The getActuatorHandle function will still return the handle (= 267) but caller should take note that there is a risk of overwritting.
   ** Warning ** Data Exchange API: You seem to already have tried to get an Actuator Handle on this one.
   **   ~~~   ** Occurred for componentType='ZONE TEMPERATURE CONTROL', controlType='HEATING SETPOINT', uniqueKey='ROOM_62B6A475-1BD9-45F0-8EB8-86BC21807113-0005A439'.
   **   ~~~   ** The getActuatorHandle function will still return the handle (= 266) but caller should take note that there is a risk of overwritting.
   ** Warning ** Data Exchange API: You seem to already have tried to get an Actuator Handle on this one.
   **   ~~~   ** Occurred for componentType='ZONE TEMPERATURE CONTROL', controlType='COOLING SETPOINT', uniqueKey='ROOM_62B6A475-1BD9-45F0-8EB8-86BC21807113-0005A439'.
   **   ~~~   ** The getActuatorHandle function will still return the handle (= 267) but caller should take note that there is a risk of overwritting.
   ** Warning ** Data Exchange API: You seem to already have tried to get an Actuator Handle on this one.
   **   ~~~   ** Occurred for componentType='ZONE TEMPERATURE CONTROL', controlType='HEATING SETPOINT', uniqueKey='ROOM_62B6A475-1BD9-45F0-8EB8-86BC21807113-0005A439'.
   **   ~~~   ** The getActuatorHandle function will still return the handle (= 266) but caller should take note that there is a risk of overwritting.
   ** Warning ** Data Exchange API: You seem to already have tried to get an Actuator Handle on this one.
   **   ~~~   ** Occurred for componentType='ZONE TEMPERATURE CONTROL', controlType='COOLING SETPOINT', uniqueKey='ROOM_62B6A475-1BD9-45F0-8EB8-86BC21807113-0005A439'.
   **   ~~~   ** The getActuatorHandle function will still return the handle (= 267) but caller should take note that there is a risk of overwritting.
   ** Warning ** Data Exchange API: You seem to already have tried to get an Actuator Handle on this one.
   **   ~~~   ** Occurred for componentType='ZONE TEMPERATURE CONTROL', controlType='HEATING SETPOINT', uniqueKey='ROOM_62B6A475-1BD9-45F0-8EB8-86BC21807113-0005A439'.
   **   ~~~   ** The getActuatorHandle function will still return the handle (= 266) but caller should take note that there is a risk of overwritting.
   ** Warning ** Data Exchange API: You seem to already have tried to get an Actuator Handle on this one.
   **   ~~~   ** Occurred for componentType='ZONE TEMPERATURE CONTROL', controlType='COOLING SETPOINT', uniqueKey='ROOM_62B6A475-1BD9-45F0-8EB8-86BC21807113-0005A439'.
   **   ~~~   ** The getActuatorHandle function will still return the handle (= 267) but caller should take note that there is a risk of overwritting.
   ** Warning ** Data Exchange API: You seem to already have tried to get an Actuator Handle on this one.
   **   ~~~   ** Occurred for componentType='ZONE TEMPERATURE CONTROL', controlType='HEATING SETPOINT', uniqueKey='ROOM_62B6A475-1BD9-45F0-8EB8-86BC21807113-0005A439'.
   **   ~~~   ** The getActuatorHandle function will still return the handle (= 266) but caller should take note that there is a risk of overwritting.
   ** Warning ** Data Exchange API: You seem to already have tried to get an Actuator Handle on this one.
   **   ~~~   ** Occurred for componentType='ZONE TEMPERATURE CONTROL', controlType='COOLING SETPOINT', uniqueKey='ROOM_62B6A475-1BD9-45F0-8EB8-86BC21807113-0005A439'.
   **   ~~~   ** The getActuatorHandle function will still return the handle (= 267) but caller should take note that there is a risk of overwritting.
   ** Warning ** Data Exchange API: You seem to already have tried to get an Actuator Handle on this one.
   **   ~~~   ** Occurred for componentType='ZONE TEMPERATURE CONTROL', controlType='HEATING SETPOINT', uniqueKey='ROOM_62B6A475-1BD9-45F0-8EB8-86BC21807113-0005A439'.
   **   ~~~   ** The getActuatorHandle function will still return the handle (= 266) but caller should take note that there is a risk of overwritting.
   ** Warning ** Data Exchange API: You seem to already have tried to get an Actuator Handle on this one.
   **   ~~~   ** Occurred for componentType='ZONE TEMPERATURE CONTROL', controlType='COOLING SETPOINT', uniqueKey='ROOM_62B6A475-1BD9-45F0-8EB8-86BC21807113-0005A439'.
   **   ~~~   ** The getActuatorHandle function will still return the handle (= 267) but caller should take note that there is a risk of overwritting.
   ** Warning ** Data Exchange API: You seem to already have tried to get an Actuator Handle on this one.
   **   ~~~   ** Occurred for componentType='ZONE TEMPERATURE CONTROL', controlType='HEATING SETPOINT', uniqueKey='ROOM_62B6A475-1BD9-45F0-8EB8-86BC21807113-0005A439'.
   **   ~~~   ** The getActuatorHandle function will still return the handle (= 266) but caller should take note that there is a risk of overwritting.
   ** Warning ** Data Exchange API: You seem to already have tried to get an Actuator Handle on this one.
   **   ~~~   ** Occurred for componentType='ZONE TEMPERATURE CONTROL', controlType='COOLING SETPOINT', uniqueKey='ROOM_62B6A475-1BD9-45F0-8EB8-86BC21807113-0005A439'.
   **   ~~~   ** The getActuatorHandle function will still return the handle (= 267) but caller should take note that there is a risk of overwritting.
   ** Warning ** Data Exchange API: You seem to already have tried to get an Actuator Handle on this one.
   **   ~~~   ** Occurred for componentType='ZONE TEMPERATURE CONTROL', controlType='HEATING SETPOINT', uniqueKey='ROOM_62B6A475-1BD9-45F0-8EB8-86BC21807113-0005A439'.
   **   ~~~   ** The getActuatorHandle function will still return the handle (= 266) but caller should take note that there is a risk of overwritting.
   ** Warning ** Data Exchange API: You seem to already have tried to get an Actuator Handle on this one.
   **   ~~~   ** Occurred for componentType='ZONE TEMPERATURE CONTROL', controlType='COOLING SETPOINT', uniqueKey='ROOM_62B6A475-1BD9-45F0-8EB8-86BC21807113-0005A439'.
   **   ~~~   ** The getActuatorHandle function will still return the handle (= 267) but caller should take note that there is a risk of overwritting.
   ** Warning ** Data Exchange API: You seem to already have tried to get an Actuator Handle on this one.
   **   ~~~   ** Occurred for componentType='ZONE TEMPERATURE CONTROL', controlType='HEATING SETPOINT', uniqueKey='ROOM_62B6A475-1BD9-45F0-8EB8-86BC21807113-0005A439'.
   **   ~~~   ** The getActuatorHandle function will still return the handle (= 266) but caller should take note that there is a risk of overwritting.
   ** Warning ** Data Exchange API: You seem to already have tried to get an Actuator Handle on this one.
   **   ~~~   ** Occurred for componentType='ZONE TEMPERATURE CONTROL', controlType='COOLING SETPOINT', uniqueKey='ROOM_62B6A475-1BD9-45F0-8EB8-86BC21807113-0005A439'.
   **   ~~~   ** The getActuatorHandle function will still return the handle (= 267) but caller should take note that there is a risk of overwritting.
   ** Warning ** Data Exchange API: You seem to already have tried to get an Actuator Handle on this one.
   **   ~~~   ** Occurred for componentType='ZONE TEMPERATURE CONTROL', controlType='HEATING SETPOINT', uniqueKey='ROOM_62B6A475-1BD9-45F0-8EB8-86BC21807113-0005A439'.
   **   ~~~   ** The getActuatorHandle function will still return the handle (= 266) but caller should take note that there is a risk of overwritting.
   ** Warning ** Data Exchange API: You seem to already have tried to get an Actuator Handle on this one.
   **   ~~~   ** Occurred for componentType='ZONE TEMPERATURE CONTROL', controlType='COOLING SETPOINT', uniqueKey='ROOM_62B6A475-1BD9-45F0-8EB8-86BC21807113-0005A439'.
   **   ~~~   ** The getActuatorHandle function will still return the handle (= 267) but caller should take note that there is a risk of overwritting.
   ** Warning ** Data Exchange API: You seem to already have tried to get an Actuator Handle on this one.
   **   ~~~   ** Occurred for componentType='ZONE TEMPERATURE CONTROL', controlType='HEATING SETPOINT', uniqueKey='ROOM_62B6A475-1BD9-45F0-8EB8-86BC21807113-0005A439'.
   **   ~~~   ** The getActuatorHandle function will still return the handle (= 266) but caller should take note that there is a risk of overwritting.
   ** Warning ** Data Exchange API: You seem to already have tried to get an Actuator Handle on this one.
   **   ~~~   ** Occurred for componentType='ZONE TEMPERATURE CONTROL', controlType='COOLING SETPOINT', uniqueKey='ROOM_62B6A475-1BD9-45F0-8EB8-86BC21807113-0005A439'.
   **   ~~~   ** The getActuatorHandle function will still return the handle (= 267) but caller should take note that there is a risk of overwritting.
   ** Warning ** Data Exchange API: You seem to already have tried to get an Actuator Handle on this one.
   **   ~~~   ** Occurred for componentType='ZONE TEMPERATURE CONTROL', controlType='HEATING SETPOINT', uniqueKey='ROOM_62B6A475-1BD9-45F0-8EB8-86BC21807113-0005A439'.
   **   ~~~   ** The getActuatorHandle function will still return the handle (= 266) but caller should take note that there is a risk of overwritting.
   ** Warning ** Data Exchange API: You seem to already have tried to get an Actuator Handle on this one.
   **   ~~~   ** Occurred for componentType='ZONE TEMPERATURE CONTROL', controlType='COOLING SETPOINT', uniqueKey='ROOM_62B6A475-1BD9-45F0-8EB8-86BC21807113-0005A439'.
   **   ~~~   ** The getActuatorHandle function will still return the handle (= 267) but caller should take note that there is a risk of overwritting.
   ** Warning ** Data Exchange API: You seem to already have tried to get an Actuator Handle on this one.
   **   ~~~   ** Occurred for componentType='ZONE TEMPERATURE CONTROL', controlType='HEATING SETPOINT', uniqueKey='ROOM_62B6A475-1BD9-45F0-8EB8-86BC21807113-0005A439'.
   **   ~~~   ** The getActuatorHandle function will still return the handle (= 266) but caller should take note that there is a risk of overwritting.
   ** Warning ** Data Exchange API: You seem to already have tried to get an Actuator Handle on this one.
   **   ~~~   ** Occurred for componentType='ZONE TEMPERATURE CONTROL', controlType='COOLING SETPOINT', uniqueKey='ROOM_62B6A475-1BD9-45F0-8EB8-86BC21807113-0005A439'.
   **   ~~~   ** The getActuatorHandle function will still return the handle (= 267) but caller should take note that there is a risk of overwritting.
   ** Warning ** Data Exchange API: You seem to already have tried to get an Actuator Handle on this one.
   **   ~~~   ** Occurred for componentType='ZONE TEMPERATURE CONTROL', controlType='HEATING SETPOINT', uniqueKey='ROOM_62B6A475-1BD9-45F0-8EB8-86BC21807113-0005A439'.
   **   ~~~   ** The getActuatorHandle function will still return the handle (= 266) but caller should take note that there is a risk of overwritting.
   ** Warning ** Data Exchange API: You seem to already have tried to get an Actuator Handle on this one.
   **   ~~~   ** Occurred for componentType='ZONE TEMPERATURE CONTROL', controlType='COOLING SETPOINT', uniqueKey='ROOM_62B6A475-1BD9-45F0-8EB8-86BC21807113-0005A439'.
   **   ~~~   ** The getActuatorHandle function will still return the handle (= 267) but caller should take note that there is a risk of overwritting.
   ** Warning ** Data Exchange API: You seem to already have tried to get an Actuator Handle on this one.
   **   ~~~   ** Occurred for componentType='ZONE TEMPERATURE CONTROL', controlType='HEATING SETPOINT', uniqueKey='ROOM_62B6A475-1BD9-45F0-8EB8-86BC21807113-0005A439'.
   **   ~~~   ** The getActuatorHandle function will still return the handle (= 266) but caller should take note that there is a risk of overwritting.
   ** Warning ** Data Exchange API: You seem to already have tried to get an Actuator Handle on this one.
   **   ~~~   ** Occurred for componentType='ZONE TEMPERATURE CONTROL', controlType='COOLING SETPOINT', uniqueKey='ROOM_62B6A475-1BD9-45F0-8EB8-86BC21807113-0005A439'.
   **   ~~~   ** The getActuatorHandle function will still return the handle (= 267) but caller should take note that there is a risk of overwritting.
   ** Warning ** Data Exchange API: You seem to already have tried to get an Actuator Handle on this one.
   **   ~~~   ** Occurred for componentType='ZONE TEMPERATURE CONTROL', controlType='HEATING SETPOINT', uniqueKey='ROOM_62B6A475-1BD9-45F0-8EB8-86BC21807113-0005A439'.
   **   ~~~   ** The getActuatorHandle function will still return the handle (= 266) but caller should take note that there is a risk of overwritting.
   ** Warning ** Data Exchange API: You seem to already have tried to get an Actuator Handle on this one.
   **   ~~~   ** Occurred for componentType='ZONE TEMPERATURE CONTROL', controlType='COOLING SETPOINT', uniqueKey='ROOM_62B6A475-1BD9-45F0-8EB8-86BC21807113-0005A439'.
   **   ~~~   ** The getActuatorHandle function will still return the handle (= 267) but caller should take note that there is a risk of overwritting.
   ** Warning ** Data Exchange API: You seem to already have tried to get an Actuator Handle on this one.
   **   ~~~   ** Occurred for componentType='ZONE TEMPERATURE CONTROL', controlType='HEATING SETPOINT', uniqueKey='ROOM_62B6A475-1BD9-45F0-8EB8-86BC21807113-0005A439'.
   **   ~~~   ** The getActuatorHandle function will still return the handle (= 266) but caller should take note that there is a risk of overwritting.
   ** Warning ** Data Exchange API: You seem to already have tried to get an Actuator Handle on this one.
   **   ~~~   ** Occurred for componentType='ZONE TEMPERATURE CONTROL', controlType='COOLING SETPOINT', uniqueKey='ROOM_62B6A475-1BD9-45F0-8EB8-86BC21807113-0005A439'.
   **   ~~~   ** The getActuatorHandle function will still return the handle (= 267) but caller should take note that there is a risk of overwritting.
   ** Warning ** Data Exchange API: You seem to already have tried to get an Actuator Handle on this one.
   **   ~~~   ** Occurred for componentType='ZONE TEMPERATURE CONTROL', controlType='HEATING SETPOINT', uniqueKey='ROOM_62B6A475-1BD9-45F0-8EB8-86BC21807113-0005A439'.
   **   ~~~   ** The getActuatorHandle function will still return the handle (= 266) but caller should take note that there is a risk of overwritting.
   ** Warning ** Data Exchange API: You seem to already have tried to get an Actuator Handle on this one.
   **   ~~~   ** Occurred for componentType='ZONE TEMPERATURE CONTROL', controlType='COOLING SETPOINT', uniqueKey='ROOM_62B6A475-1BD9-45F0-8EB8-86BC21807113-0005A439'.
   **   ~~~   ** The getActuatorHandle function will still return the handle (= 267) but caller should take note that there is a risk of overwritting.
   ** Warning ** Data Exchange API: You seem to already have tried to get an Actuator Handle on this one.
   **   ~~~   ** Occurred for componentType='ZONE TEMPERATURE CONTROL', controlType='HEATING SETPOINT', uniqueKey='ROOM_62B6A475-1BD9-45F0-8EB8-86BC21807113-0005A439'.
   **   ~~~   ** The getActuatorHandle function will still return the handle (= 266) but caller should take note that there is a risk of overwritting.
   ** Warning ** Data Exchange API: You seem to already have tried to get an Actuator Handle on this one.
   **   ~~~   ** Occurred for componentType='ZONE TEMPERATURE CONTROL', controlType='COOLING SETPOINT', uniqueKey='ROOM_62B6A475-1BD9-45F0-8EB8-86BC21807113-0005A439'.
   **   ~~~   ** The getActuatorHandle function will still return the handle (= 267) but caller should take note that there is a risk of overwritting.
   ** Warning ** Data Exchange API: You seem to already have tried to get an Actuator Handle on this one.
[...]
   ** Warning ** Data Exchange API: You seem to already have tried to get an Actuator Handle on this one.
   **   ~~~   ** Occurred for componentType='ZONE TEMPERATURE CONTROL', controlType='HEATING SETPOINT', uniqueKey='ROOM_62B6A475-1BD9-45F0-8EB8-86BC21807113-0005A439'.
   **   ~~~   ** The getActuatorHandle function will still return the handle (= 266) but caller should take note that there is a risk of overwritting.
   ** Warning ** Data Exchange API: You seem to already have tried to get an Actuator Handle on this one.
   **   ~~~   ** Occurred for componentType='ZONE TEMPERATURE CONTROL', controlType='COOLING SETPOINT', uniqueKey='ROOM_62B6A475-1BD9-45F0-8EB8-86BC21807113-0005A439'.
   **   ~~~   ** The getActuatorHandle function will still return the handle (= 267) but caller should take note that there is a risk of overwritting.
   ** Warning ** Data Exchange API: You seem to already have tried to get an Actuator Handle on this one.
   **   ~~~   ** Occurred for componentType='ZONE TEMPERATURE CONTROL', controlType='HEATING SETPOINT', uniqueKey='ROOM_62B6A475-1BD9-45F0-8EB8-86BC21807113-0005A439'.
   **   ~~~   ** The getActuatorHandle function will still return the handle (= 266) but caller should take note that there is a risk of overwritting.
   ** Warning ** Data Exchange API: You seem to already have tried to get an Actuator Handle on this one.
   **   ~~~   ** Occurred for componentType='ZONE TEMPERATURE CONTROL', controlType='COOLING SETPOINT', uniqueKey='ROOM_62B6A475-1BD9-45F0-8EB8-86BC21807113-0005A439'.
   **   ~~~   ** The getActuatorHandle function will still return the handle (= 267) but caller should take note that there is a risk of overwritting.
   ** Warning ** Data Exchange API: You seem to already have tried to get an Actuator Handle on this one.
   **   ~~~   ** Occurred for componentType='ZONE TEMPERATURE CONTROL', controlType='HEATING SETPOINT', uniqueKey='ROOM_62B6A475-1BD9-45F0-8EB8-86BC21807113-0005A439'.
   **   ~~~   ** The getActuatorHandle function will still return the handle (= 266) but caller should take note that there is a risk of overwritting.
   ** Warning ** Data Exchange API: You seem to already have tried to get an Actuator Handle on this one.
   **   ~~~   ** Occurred for componentType='ZONE TEMPERATURE CONTROL', controlType='COOLING SETPOINT', uniqueKey='ROOM_62B6A475-1BD9-45F0-8EB8-86BC21807113-0005A439'.
   **   ~~~   ** The getActuatorHandle function will still return the handle (= 267) but caller should take note that there is a risk of overwritting.
   ** Warning ** Data Exchange API: You seem to already have tried to get an Actuator Handle on this one.
   **   ~~~   ** Occurred for componentType='ZONE TEMPERATURE CONTROL', controlType='HEATING SETPOINT', uniqueKey='ROOM_62B6A475-1BD9-45F0-8EB8-86BC21807113-0005A439'.
   **   ~~~   ** The getActuatorHandle function will still return the handle (= 266) but caller should take note that there is a risk of overwritting.
   ** Warning ** Data Exchange API: You seem to already have tried to get an Actuator Handle on this one.
   **   ~~~   ** Occurred for componentType='ZONE TEMPERATURE CONTROL', controlType='COOLING SETPOINT', uniqueKey='ROOM_62B6A475-1BD9-45F0-8EB8-86BC21807113-0005A439'.
   **   ~~~   ** The getActuatorHandle function will still return the handle (= 267) but caller should take note that there is a risk of overwritting.
   ** Warning ** Data Exchange API: You seem to already have tried to get an Actuator Handle on this one.
   **   ~~~   ** Occurred for componentType='ZONE TEMPERATURE CONTROL', controlType='HEATING SETPOINT', uniqueKey='ROOM_62B6A475-1BD9-45F0-8EB8-86BC21807113-0005A439'.
   **   ~~~   ** The getActuatorHandle function will still return the handle (= 266) but caller should take note that there is a risk of overwritting.
   ** Warning ** Data Exchange API: You seem to already have tried to get an Actuator Handle on this one.
   **   ~~~   ** Occurred for componentType='ZONE TEMPERATURE CONTROL', controlType='COOLING SETPOINT', uniqueKey='ROOM_62B6A475-1BD9-45F0-8EB8-86BC21807113-0005A439'.
   **   ~~~   ** The getActuatorHandle function will still return the handle (= 267) but caller should take note that there is a risk of overwritting.
   ** Warning ** Data Exchange API: You seem to already have tried to get an Actuator Handle on this one.
   **   ~~~   ** Occurred for componentType='ZONE TEMPERATURE CONTROL', controlType='HEATING SETPOINT', uniqueKey='ROOM_62B6A475-1BD9-45F0-8EB8-86BC21807113-0005A439'.
   **   ~~~   ** The getActuatorHandle function will still return the handle (= 266) but caller should take note that there is a risk of overwritting.
   ** Warning ** Data Exchange API: You seem to already have tried to get an Actuator Handle on this one.
   **   ~~~   ** Occurred for componentType='ZONE TEMPERATURE CONTROL', controlType='COOLING SETPOINT', uniqueKey='ROOM_62B6A475-1BD9-45F0-8EB8-86BC21807113-0005A439'.
   **   ~~~   ** The getActuatorHandle function will still return the handle (= 267) but caller should take note that there is a risk of overwritting.
   ** Warning ** Data Exchange API: You seem to already have tried to get an Actuator Handle on this one.
   **   ~~~   ** Occurred for componentType='ZONE TEMPERATURE CONTROL', controlType='HEATING SETPOINT', uniqueKey='ROOM_62B6A475-1BD9-45F0-8EB8-86BC21807113-0005A439'.
   **   ~~~   ** The getActuatorHandle function will still return the handle (= 266) but caller should take note that there is a risk of overwritting.
   ** Warning ** Data Exchange API: You seem to already have tried to get an Actuator Handle on this one.
   **   ~~~   ** Occurred for componentType='ZONE TEMPERATURE CONTROL', controlType='COOLING SETPOINT', uniqueKey='ROOM_62B6A475-1BD9-45F0-8EB8-86BC21807113-0005A439'.
   **   ~~~   ** The getActuatorHandle function will still return the handle (= 267) but caller should take note that there is a risk of overwritting.
   ** Warning ** Data Exchange API: You seem to already have tried to get an Actuator Handle on this one.
   **   ~~~   ** Occurred for componentType='ZONE TEMPERATURE CONTROL', controlType='HEATING SETPOINT', uniqueKey='ROOM_62B6A475-1BD9-45F0-8EB8-86BC21807113-0005A439'.
   **   ~~~   ** The getActuatorHandle function will still return the handle (= 266) but caller should take note that there is a risk of overwritting.
   ** Warning ** Data Exchange API: You seem to already have tried to get an Actuator Handle on this one.
   **   ~~~   ** Occurred for componentType='ZONE TEMPERATURE CONTROL', controlType='COOLING SETPOINT', uniqueKey='ROOM_62B6A475-1BD9-45F0-8EB8-86BC21807113-0005A439'.
   **   ~~~   ** The getActuatorHandle function will still return the handle (= 267) but caller should take note that there is a risk of overwritting.
   ** Warning ** Data Exchange API: You seem to already have tried to get an Actuator Handle on this one.
   **   ~~~   ** Occurred for componentType='ZONE TEMPERATURE CONTROL', controlType='HEATING SETPOINT', uniqueKey='ROOM_62B6A475-1BD9-45F0-8EB8-86BC21807113-0005A439'.
   **   ~~~   ** The getActuatorHandle function will still return the handle (= 266) but caller should take note that there is a risk of overwritting.
   ** Warning ** Data Exchange API: You seem to already have tried to get an Actuator Handle on this one.
   **   ~~~   ** Occurred for componentType='ZONE TEMPERATURE CONTROL', controlType='COOLING SETPOINT', uniqueKey='ROOM_62B6A475-1BD9-45F0-8EB8-86BC21807113-0005A439'.
   **   ~~~   ** The getActuatorHandle function will still return the handle (= 267) but caller should take note that there is a risk of overwritting.
   ** Warning ** Data Exchange API: You seem to already have tried to get an Actuator Handle on this one.
   **   ~~~   ** Occurred for componentType='ZONE TEMPERATURE CONTROL', controlType='HEATING SETPOINT', uniqueKey='ROOM_62B6A475-1BD9-45F0-8EB8-86BC21807113-0005A439'.
   **   ~~~   ** The getActuatorHandle function will still return the handle (= 266) but caller should take note that there is a risk of overwritting.
   ** Warning ** Data Exchange API: You seem to already have tried to get an Actuator Handle on this one.
   **   ~~~   ** Occurred for componentType='ZONE TEMPERATURE CONTROL', controlType='COOLING SETPOINT', uniqueKey='ROOM_62B6A475-1BD9-45F0-8EB8-86BC21807113-0005A439'.
   **   ~~~   ** The getActuatorHandle function will still return the handle (= 267) but caller should take note that there is a risk of overwritting.
   ** Warning ** Data Exchange API: You seem to already have tried to get an Actuator Handle on this one.
   **   ~~~   ** Occurred for componentType='ZONE TEMPERATURE CONTROL', controlType='HEATING SETPOINT', uniqueKey='ROOM_62B6A475-1BD9-45F0-8EB8-86BC21807113-0005A439'.
   **   ~~~   ** The getActuatorHandle function will still return the handle (= 266) but caller should take note that there is a risk of overwritting.
   ** Warning ** Data Exchange API: You seem to already have tried to get an Actuator Handle on this one.
   **   ~~~   ** Occurred for componentType='ZONE TEMPERATURE CONTROL', controlType='COOLING SETPOINT', uniqueKey='ROOM_62B6A475-1BD9-45F0-8EB8-86BC21807113-0005A439'.
   **   ~~~   ** The getActuatorHandle function will still return the handle (= 267) but caller should take note that there is a risk of overwritting.
   ** Warning ** Data Exchange API: You seem to already have tried to get an Actuator Handle on this one.
   **   ~~~   ** Occurred for componentType='ZONE TEMPERATURE CONTROL', controlType='HEATING SETPOINT', uniqueKey='ROOM_62B6A475-1BD9-45F0-8EB8-86BC21807113-0005A439'.
   **   ~~~   ** The getActuatorHandle function will still return the handle (= 266) but caller should take note that there is a risk of overwritting.
   ** Warning ** Data Exchange API: You seem to already have tried to get an Actuator Handle on this one.
   **   ~~~   ** Occurred for componentType='ZONE TEMPERATURE CONTROL', controlType='COOLING SETPOINT', uniqueKey='ROOM_62B6A475-1BD9-45F0-8EB8-86BC21807113-0005A439'.
   **   ~~~   ** The getActuatorHandle function will still return the handle (= 267) but caller should take note that there is a risk of overwritting.
   ** Warning ** Data Exchange API: You seem to already have tried to get an Actuator Handle on this one.
   **   ~~~   ** Occurred for componentType='ZONE TEMPERATURE CONTROL', controlType='HEATING SETPOINT', uniqueKey='ROOM_62B6A475-1BD9-45F0-8EB8-86BC21807113-0005A439'.
   **   ~~~   ** The getActuatorHandle function will still return the handle (= 266) but caller should take note that there is a risk of overwritting.
   ** Warning ** Data Exchange API: You seem to already have tried to get an Actuator Handle on this one.
   **   ~~~   ** Occurred for componentType='ZONE TEMPERATURE CONTROL', controlType='COOLING SETPOINT', uniqueKey='ROOM_62B6A475-1BD9-45F0-8EB8-86BC21807113-0005A439'.
   **   ~~~   ** The getActuatorHandle function will still return the handle (= 267) but caller should take note that there is a risk of overwritting.
   ** Warning ** Data Exchange API: You seem to already have tried to get an Actuator Handle on this one.
   **   ~~~   ** Occurred for componentType='ZONE TEMPERATURE CONTROL', controlType='HEATING SETPOINT', uniqueKey='ROOM_62B6A475-1BD9-45F0-8EB8-86BC21807113-0005A439'.
   **   ~~~   ** The getActuatorHandle function will still return the handle (= 266) but caller should take note that there is a risk of overwritting.
   ** Warning ** Data Exchange API: You seem to already have tried to get an Actuator Handle on this one.
   **   ~~~   ** Occurred for componentType='ZONE TEMPERATURE CONTROL', controlType='COOLING SETPOINT', uniqueKey='ROOM_62B6A475-1BD9-45F0-8EB8-86BC21807113-0005A439'.
   **   ~~~   ** The getActuatorHandle function will still return the handle (= 267) but caller should take note that there is a risk of overwritting.
   ** Warning ** Data Exchange API: You seem to already have tried to get an Actuator Handle on this one.
   **   ~~~   ** Occurred for componentType='ZONE TEMPERATURE CONTROL', controlType='HEATING SETPOINT', uniqueKey='ROOM_62B6A475-1BD9-45F0-8EB8-86BC21807113-0005A439'.
   **   ~~~   ** The getActuatorHandle function will still return the handle (= 266) but caller should take note that there is a risk of overwritting.
   ** Warning ** Data Exchange API: You seem to already have tried to get an Actuator Handle on this one.
   **   ~~~   ** Occurred for componentType='ZONE TEMPERATURE CONTROL', controlType='COOLING SETPOINT', uniqueKey='ROOM_62B6A475-1BD9-45F0-8EB8-86BC21807113-0005A439'.
   **   ~~~   ** The getActuatorHandle function will still return the handle (= 267) but caller should take note that there is a risk of overwritting.
   ** Warning ** Data Exchange API: You seem to already have tried to get an Actuator Handle on this one.
   **   ~~~   ** Occurred for componentType='ZONE TEMPERATURE CONTROL', controlType='HEATING SETPOINT', uniqueKey='ROOM_62B6A475-1BD9-45F0-8EB8-86BC21807113-0005A439'.
   **   ~~~   ** The getActuatorHandle function will still return the handle (= 266) but caller should take note that there is a risk of overwritting.
   ** Warning ** Data Exchange API: You seem to already have tried to get an Actuator Handle on this one.
   **   ~~~   ** Occurred for componentType='ZONE TEMPERATURE CONTROL', controlType='COOLING SETPOINT', uniqueKey='ROOM_62B6A475-1BD9-45F0-8EB8-86BC21807113-0005A439'.
   **   ~~~   ** The getActuatorHandle function will still return the handle (= 267) but caller should take note that there is a risk of overwritting.
   ** Warning ** Data Exchange API: You seem to already have tried to get an Actuator Handle on this one.
   **   ~~~   ** Occurred for componentType='ZONE TEMPERATURE CONTROL', controlType='HEATING SETPOINT', uniqueKey='ROOM_62B6A475-1BD9-45F0-8EB8-86BC21807113-0005A439'.
   **   ~~~   ** The getActuatorHandle function will still return the handle (= 266) but caller should take note that there is a risk of overwritting.
   ** Warning ** Data Exchange API: You seem to already have tried to get an Actuator Handle on this one.
   **   ~~~   ** Occurred for componentType='ZONE TEMPERATURE CONTROL', controlType='COOLING SETPOINT', uniqueKey='ROOM_62B6A475-1BD9-45F0-8EB8-86BC21807113-0005A439'.
   **   ~~~   ** The getActuatorHandle function will still return the handle (= 267) but caller should take note that there is a risk of overwritting.
   ** Warning ** Data Exchange API: You seem to already have tried to get an Actuator Handle on this one.
   **   ~~~   ** Occurred for componentType='ZONE TEMPERATURE CONTROL', controlType='HEATING SETPOINT', uniqueKey='ROOM_62B6A475-1BD9-45F0-8EB8-86BC21807113-0005A439'.
   **   ~~~   ** The getActuatorHandle function will still return the handle (= 266) but caller should take note that there is a risk of overwritting.
   ** Warning ** Data Exchange API: You seem to already have tried to get an Actuator Handle on this one.
   **   ~~~   ** Occurred for componentType='ZONE TEMPERATURE CONTROL', controlType='COOLING SETPOINT', uniqueKey='ROOM_62B6A475-1BD9-45F0-8EB8-86BC21807113-0005A439'.
   **   ~~~   ** The getActuatorHandle function will still return the handle (= 267) but caller should take note that there is a risk of overwritting.
   ** Warning ** Data Exchange API: You seem to already have tried to get an Actuator Handle on this one.
   **   ~~~   ** Occurred for componentType='ZONE TEMPERATURE CONTROL', controlType='HEATING SETPOINT', uniqueKey='ROOM_62B6A475-1BD9-45F0-8EB8-86BC21807113-0005A439'.
   **   ~~~   ** The getActuatorHandle function will still return the handle (= 266) but caller should take note that there is a risk of overwritting.
   ** Warning ** Data Exchange API: You seem to already have tried to get an Actuator Handle on this one.
   **   ~~~   ** Occurred for componentType='ZONE TEMPERATURE CONTROL', controlType='COOLING SETPOINT', uniqueKey='ROOM_62B6A475-1BD9-45F0-8EB8-86BC21807113-0005A439'.
   **   ~~~   ** The getActuatorHandle function will still return the handle (= 267) but caller should take note that there is a risk of overwritting.
   ** Warning ** Data Exchange API: You seem to already have tried to get an Actuator Handle on this one.
   **   ~~~   ** Occurred for componentType='ZONE TEMPERATURE CONTROL', controlType='HEATING SETPOINT', uniqueKey='ROOM_62B6A475-1BD9-45F0-8EB8-86BC21807113-0005A439'.
   **   ~~~   ** The getActuatorHandle function will still return the handle (= 266) but caller should take note that there is a risk of overwritting.
   ** Warning ** Data Exchange API: You seem to already have tried to get an Actuator Handle on this one.
   **   ~~~   ** Occurred for componentType='ZONE TEMPERATURE CONTROL', controlType='COOLING SETPOINT', uniqueKey='ROOM_62B6A475-1BD9-45F0-8EB8-86BC21807113-0005A439'.
   **   ~~~   ** The getActuatorHandle function will still return the handle (= 267) but caller should take note that there is a risk of overwritting.
   ** Warning ** Data Exchange API: You seem to already have tried to get an Actuator Handle on this one.
   **   ~~~   ** Occurred for componentType='ZONE TEMPERATURE CONTROL', controlType='HEATING SETPOINT', uniqueKey='ROOM_62B6A475-1BD9-45F0-8EB8-86BC21807113-0005A439'.
   **   ~~~   ** The getActuatorHandle function will still return the handle (= 266) but caller should take note that there is a risk of overwritting.
   ** Warning ** Data Exchange API: You seem to already have tried to get an Actuator Handle on this one.
   **   ~~~   ** Occurred for componentType='ZONE TEMPERATURE CONTROL', controlType='COOLING SETPOINT', uniqueKey='ROOM_62B6A475-1BD9-45F0-8EB8-86BC21807113-0005A439'.
   **   ~~~   ** The getActuatorHandle function will still return the handle (= 267) but caller should take note that there is a risk of overwritting.
   ** Warning ** Data Exchange API: You seem to already have tried to get an Actuator Handle on this one.
   **   ~~~   ** Occurred for componentType='ZONE TEMPERATURE CONTROL', controlType='HEATING SETPOINT', uniqueKey='ROOM_62B6A475-1BD9-45F0-8EB8-86BC21807113-0005A439'.
   **   ~~~   ** The getActuatorHandle function will still return the handle (= 266) but caller should take note that there is a risk of overwritting.
   ** Warning ** Data Exchange API: You seem to already have tried to get an Actuator Handle on this one.
   **   ~~~   ** Occurred for componentType='ZONE TEMPERATURE CONTROL', controlType='COOLING SETPOINT', uniqueKey='ROOM_62B6A475-1BD9-45F0-8EB8-86BC21807113-0005A439'.
   **   ~~~   ** The getActuatorHandle function will still return the handle (= 267) but caller should take note that there is a risk of overwritting.
   ** Warning ** Data Exchange API: You seem to already have tried to get an Actuator Handle on this one.
   **   ~~~   ** Occurred for componentType='ZONE TEMPERATURE CONTROL', controlType='HEATING SETPOINT', uniqueKey='ROOM_62B6A475-1BD9-45F0-8EB8-86BC21807113-0005A439'.
   **   ~~~   ** The getActuatorHandle function will still return the handle (= 266) but caller should take note that there is a risk of overwritting.
   ** Warning ** Data Exchange API: You seem to already have tried to get an Actuator Handle on this one.
   **   ~~~   ** Occurred for componentType='ZONE TEMPERATURE CONTROL', controlType='COOLING SETPOINT', uniqueKey='ROOM_62B6A475-1BD9-45F0-8EB8-86BC21807113-0005A439'.
   **   ~~~   ** The getActuatorHandle function will still return the handle (= 267) but caller should take note that there is a risk of overwritting.
   ** Warning ** Data Exchange API: You seem to already have tried to get an Actuator Handle on this one.
   **   ~~~   ** Occurred for componentType='ZONE TEMPERATURE CONTROL', controlType='HEATING SETPOINT', uniqueKey='ROOM_62B6A475-1BD9-45F0-8EB8-86BC21807113-0005A439'.
   **   ~~~   ** The getActuatorHandle function will still return the handle (= 266) but caller should take note that there is a risk of overwritting.